/*---------------------------------------------------------------------------*\
| =========                 |                                                 |
| \\      /  F ield         | OpenFOAM: The Open Source CFD Toolbox           |
|  \\    /   O peration     | Version:  2412                                  |
|   \\  /    A nd           | Website:  www.openfoam.com                      |
|    \\/     M anipulation  |                                                 |
\*---------------------------------------------------------------------------*/
Build  : _b8cf4d35-20260127 OPENFOAM=2412 patch=260127 version=2412
Arch   : "LSB;label=32;scalar=64"
Exec   : simpleFoam
Date   : May 31 2026
Time   : 21:48:39
Host   : LAPTOP-8OT81PN8
PID    : 24899
I/O    : uncollated
Case   : /home/saidul/threeFin_case
nProcs : 1
trapFpe: Floating point exception trapping enabled (FOAM_SIGFPE).
fileModificationChecking : Monitoring run-time modified files using timeStampMaster (fileModificationSkew 5, maxFileModificationPolls 20)
allowSystemOperations : Allowing user-supplied system call operations

// * * * * * * * * * * * * * * * * * * * * * * * * * * * * * * * * * * * * * //
Create time

Create mesh for time = 0


SIMPLE: convergence criteria
    field p	 tolerance 0.0001
    field U	 tolerance 0.0001
    field k	 tolerance 0.0001
    field epsilon	 tolerance 0.0001

Reading field p

Reading field U

Reading/calculating face flux field phi

Selecting incompressible transport model Newtonian
Selecting turbulence model type RAS
Selecting RAS turbulence model kEpsilon
RAS
{
    RASModel        kEpsilon;
    turbulence      on;
    printCoeffs     on;
    Cmu             0.09;
    C1              1.44;
    C2              1.92;
    C3              0;
    sigmak          1;
    sigmaEps        1.3;
}

No MRF models present

Creating finite volume options from "constant/fvOptions"

Selecting finite volume options type explicitPorositySource
    Source: centralFin
    - selecting cells using cellZones (allFinCells)
    - selected 4800 cell(s) with volume 0.12
Porosity region centralFin:
    selecting model: DarcyForchheimer
--> FOAM IOWarning :
    Found [v1806] 'coordinateRotation' entry instead of 'rotation' in dictionary "constant/fvOptions/centralFin/explicitPorositySourceCoeffs/DarcyForchheimerCoeffs/coordinateSystem"

    This keyword is 78 months old.

Using [v1806] 'axesRotation' instead of 'axes' in selection table: coordinateRotation

    This lookup is 78 months old.

    creating porous zone: allFinCells
    origin: (0 0 0) e1: (1 0 0) e2: (0 1 0)
    local bounds: (1 0.8 0.4)


Starting time loop

surfaceFieldValue pressureDrop:
    operation     = areaAverage


Time = 1

smoothSolver:  Solving for Ux, Initial residual = 1, Final residual = 0.044152221, No Iterations 2
smoothSolver:  Solving for Uy, Initial residual = 0.99992019, Final residual = 0.084698337, No Iterations 1
smoothSolver:  Solving for Uz, Initial residual = 0.99993902, Final residual = 0.078932793, No Iterations 1
GAMG:  Solving for p, Initial residual = 1, Final residual = 0.0066137556, No Iterations 6
time step continuity errors : sum local = 5.8801843e-05, global = -1.1720757e-05, cumulative = -1.1720757e-05
smoothSolver:  Solving for epsilon, Initial residual = 0.028845301, Final residual = 0.00089929168, No Iterations 2
smoothSolver:  Solving for k, Initial residual = 1, Final residual = 0.043497483, No Iterations 2
ExecutionTime = 1.1 s  ClockTime = 1 s

Time = 2

smoothSolver:  Solving for Ux, Initial residual = 0.28636202, Final residual = 0.015189228, No Iterations 2
smoothSolver:  Solving for Uy, Initial residual = 0.60911886, Final residual = 0.03947451, No Iterations 2
smoothSolver:  Solving for Uz, Initial residual = 0.62320192, Final residual = 0.043443843, No Iterations 2
GAMG:  Solving for p, Initial residual = 0.072553221, Final residual = 0.00033359047, No Iterations 6
time step continuity errors : sum local = 5.1224031e-05, global = -7.274751e-06, cumulative = -1.8995508e-05
smoothSolver:  Solving for epsilon, Initial residual = 0.021749536, Final residual = 0.00058648827, No Iterations 2
smoothSolver:  Solving for k, Initial residual = 0.2889171, Final residual = 0.013819979, No Iterations 2
ExecutionTime = 1.47 s  ClockTime = 1 s

Time = 3

smoothSolver:  Solving for Ux, Initial residual = 0.223941, Final residual = 0.011723882, No Iterations 2
smoothSolver:  Solving for Uy, Initial residual = 0.36597823, Final residual = 0.022666475, No Iterations 2
smoothSolver:  Solving for Uz, Initial residual = 0.36743705, Final residual = 0.02482003, No Iterations 2
GAMG:  Solving for p, Initial residual = 0.044641699, Final residual = 0.0001524481, No Iterations 5
time step continuity errors : sum local = 4.086279e-05, global = 3.6971184e-06, cumulative = -1.529839e-05
smoothSolver:  Solving for epsilon, Initial residual = 0.01207835, Final residual = 0.0002166056, No Iterations 2
smoothSolver:  Solving for k, Initial residual = 0.16726498, Final residual = 0.0044469307, No Iterations 2
ExecutionTime = 1.82 s  ClockTime = 2 s

Time = 4

smoothSolver:  Solving for Ux, Initial residual = 0.15286538, Final residual = 0.0080800805, No Iterations 2
smoothSolver:  Solving for Uy, Initial residual = 0.21083219, Final residual = 0.012981098, No Iterations 2
smoothSolver:  Solving for Uz, Initial residual = 0.21005665, Final residual = 0.014225894, No Iterations 2
GAMG:  Solving for p, Initial residual = 0.049930149, Final residual = 0.00043960152, No Iterations 5
time step continuity errors : sum local = 0.000113912, global = -4.9333728e-05, cumulative = -6.4632118e-05
smoothSolver:  Solving for epsilon, Initial residual = 0.0094693517, Final residual = 0.00013430454, No Iterations 2
smoothSolver:  Solving for k, Initial residual = 0.094551496, Final residual = 0.0024067568, No Iterations 2
ExecutionTime = 2.21 s  ClockTime = 2 s

Time = 5

smoothSolver:  Solving for Ux, Initial residual = 0.097105076, Final residual = 0.0047979037, No Iterations 2
smoothSolver:  Solving for Uy, Initial residual = 0.11106282, Final residual = 0.0066888251, No Iterations 2
smoothSolver:  Solving for Uz, Initial residual = 0.10800888, Final residual = 0.0071953683, No Iterations 2
GAMG:  Solving for p, Initial residual = 0.066121503, Final residual = 0.00016779146, No Iterations 6
time step continuity errors : sum local = 2.9646366e-05, global = 4.4097882e-06, cumulative = -6.0222329e-05
smoothSolver:  Solving for epsilon, Initial residual = 0.006512305, Final residual = 0.0006357248, No Iterations 1
smoothSolver:  Solving for k, Initial residual = 0.055956459, Final residual = 0.0016717539, No Iterations 2
ExecutionTime = 2.6 s  ClockTime = 3 s

Time = 6

smoothSolver:  Solving for Ux, Initial residual = 0.068764348, Final residual = 0.0034970317, No Iterations 2
smoothSolver:  Solving for Uy, Initial residual = 0.06050862, Final residual = 0.003418882, No Iterations 2
smoothSolver:  Solving for Uz, Initial residual = 0.058375594, Final residual = 0.0036604302, No Iterations 2
GAMG:  Solving for p, Initial residual = 0.079311475, Final residual = 0.00064358629, No Iterations 4
time step continuity errors : sum local = 7.8021976e-05, global = 1.5670733e-05, cumulative = -4.4551596e-05
smoothSolver:  Solving for epsilon, Initial residual = 0.0049589467, Final residual = 9.6307033e-05, No Iterations 2
smoothSolver:  Solving for k, Initial residual = 0.034758473, Final residual = 0.001580358, No Iterations 2
ExecutionTime = 3 s  ClockTime = 3 s

Time = 7

smoothSolver:  Solving for Ux, Initial residual = 0.05744034, Final residual = 0.0030623833, No Iterations 2
smoothSolver:  Solving for Uy, Initial residual = 0.06067432, Final residual = 0.00330339, No Iterations 2
smoothSolver:  Solving for Uz, Initial residual = 0.055088052, Final residual = 0.0033611202, No Iterations 2
GAMG:  Solving for p, Initial residual = 0.067108486, Final residual = 0.0005660614, No Iterations 5
time step continuity errors : sum local = 7.6773585e-05, global = 2.0202749e-05, cumulative = -2.4348847e-05
smoothSolver:  Solving for epsilon, Initial residual = 0.0036690267, Final residual = 0.00010389865, No Iterations 2
smoothSolver:  Solving for k, Initial residual = 0.024410665, Final residual = 0.0015990638, No Iterations 2
ExecutionTime = 3.34 s  ClockTime = 3 s

Time = 8

smoothSolver:  Solving for Ux, Initial residual = 0.051908625, Final residual = 0.002822405, No Iterations 2
smoothSolver:  Solving for Uy, Initial residual = 0.068124722, Final residual = 0.0038635954, No Iterations 2
smoothSolver:  Solving for Uz, Initial residual = 0.062707742, Final residual = 0.0040240788, No Iterations 2
GAMG:  Solving for p, Initial residual = 0.047896369, Final residual = 0.00016019587, No Iterations 5
time step continuity errors : sum local = 2.9679913e-05, global = -3.1929817e-06, cumulative = -2.7541828e-05
smoothSolver:  Solving for epsilon, Initial residual = 0.0030478346, Final residual = 0.00012271903, No Iterations 2
smoothSolver:  Solving for k, Initial residual = 0.023980315, Final residual = 0.0017269651, No Iterations 2
ExecutionTime = 3.68 s  ClockTime = 4 s

Time = 9

smoothSolver:  Solving for Ux, Initial residual = 0.046307105, Final residual = 0.0025536884, No Iterations 2
smoothSolver:  Solving for Uy, Initial residual = 0.064844564, Final residual = 0.003883211, No Iterations 2
smoothSolver:  Solving for Uz, Initial residual = 0.063546234, Final residual = 0.0042741049, No Iterations 2
GAMG:  Solving for p, Initial residual = 0.041040996, Final residual = 0.00021185118, No Iterations 4
time step continuity errors : sum local = 4.4846457e-05, global = -3.0254693e-06, cumulative = -3.0567298e-05
smoothSolver:  Solving for epsilon, Initial residual = 0.002850972, Final residual = 0.00014706466, No Iterations 2
smoothSolver:  Solving for k, Initial residual = 0.024282543, Final residual = 0.0018558502, No Iterations 2
ExecutionTime = 4.01 s  ClockTime = 4 s

Time = 10

smoothSolver:  Solving for Ux, Initial residual = 0.038558469, Final residual = 0.0021602715, No Iterations 2
smoothSolver:  Solving for Uy, Initial residual = 0.053305639, Final residual = 0.0033421684, No Iterations 2
smoothSolver:  Solving for Uz, Initial residual = 0.05453497, Final residual = 0.0037777139, No Iterations 2
GAMG:  Solving for p, Initial residual = 0.04026344, Final residual = 0.00034178873, No Iterations 5
time step continuity errors : sum local = 6.6939173e-05, global = -1.7104824e-05, cumulative = -4.7672121e-05
smoothSolver:  Solving for epsilon, Initial residual = 0.0028913252, Final residual = 0.00017259236, No Iterations 2
smoothSolver:  Solving for k, Initial residual = 0.025142576, Final residual = 0.0019471392, No Iterations 2
ExecutionTime = 4.34 s  ClockTime = 4 s

Time = 11

smoothSolver:  Solving for Ux, Initial residual = 0.031813776, Final residual = 0.0018482003, No Iterations 2
smoothSolver:  Solving for Uy, Initial residual = 0.040559312, Final residual = 0.0025353522, No Iterations 2
smoothSolver:  Solving for Uz, Initial residual = 0.04089181, Final residual = 0.0027900192, No Iterations 2
GAMG:  Solving for p, Initial residual = 0.041345293, Final residual = 0.00039420675, No Iterations 4
time step continuity errors : sum local = 6.4259424e-05, global = -4.8302171e-06, cumulative = -5.2502338e-05
smoothSolver:  Solving for epsilon, Initial residual = 0.0030166447, Final residual = 0.00019586011, No Iterations 2
smoothSolver:  Solving for k, Initial residual = 0.025776951, Final residual = 0.0019942308, No Iterations 2
ExecutionTime = 4.66 s  ClockTime = 5 s

Time = 12

smoothSolver:  Solving for Ux, Initial residual = 0.02779358, Final residual = 0.0016813239, No Iterations 2
smoothSolver:  Solving for Uy, Initial residual = 0.034788913, Final residual = 0.0020954185, No Iterations 2
smoothSolver:  Solving for Uz, Initial residual = 0.032232131, Final residual = 0.0020672041, No Iterations 2
GAMG:  Solving for p, Initial residual = 0.04150812, Final residual = 0.00013140275, No Iterations 5
time step continuity errors : sum local = 1.9305084e-05, global = -1.8970661e-06, cumulative = -5.4399404e-05
smoothSolver:  Solving for epsilon, Initial residual = 0.0031507688, Final residual = 0.0002150108, No Iterations 2
smoothSolver:  Solving for k, Initial residual = 0.025677882, Final residual = 0.0019979478, No Iterations 2
ExecutionTime = 5 s  ClockTime = 5 s

Time = 13

smoothSolver:  Solving for Ux, Initial residual = 0.025023066, Final residual = 0.0015401446, No Iterations 2
smoothSolver:  Solving for Uy, Initial residual = 0.03311693, Final residual = 0.00209701, No Iterations 2
smoothSolver:  Solving for Uz, Initial residual = 0.03055484, Final residual = 0.0019620962, No Iterations 2
GAMG:  Solving for p, Initial residual = 0.037682609, Final residual = 0.00014388604, No Iterations 5
time step continuity errors : sum local = 2.2346393e-05, global = -1.1744268e-06, cumulative = -5.5573831e-05
smoothSolver:  Solving for epsilon, Initial residual = 0.0032788574, Final residual = 0.00022968354, No Iterations 2
smoothSolver:  Solving for k, Initial residual = 0.024923107, Final residual = 0.0019705508, No Iterations 2
ExecutionTime = 5.37 s  ClockTime = 5 s

Time = 14

smoothSolver:  Solving for Ux, Initial residual = 0.022631127, Final residual = 0.0013759679, No Iterations 2
smoothSolver:  Solving for Uy, Initial residual = 0.032687673, Final residual = 0.0021554784, No Iterations 2
smoothSolver:  Solving for Uz, Initial residual = 0.030724742, Final residual = 0.0020633554, No Iterations 2
GAMG:  Solving for p, Initial residual = 0.033011894, Final residual = 8.823232e-05, No Iterations 5
time step continuity errors : sum local = 1.5133992e-05, global = -1.0877621e-06, cumulative = -5.6661593e-05
smoothSolver:  Solving for epsilon, Initial residual = 0.0034099582, Final residual = 0.00024017101, No Iterations 2
smoothSolver:  Solving for k, Initial residual = 0.023792699, Final residual = 0.0019246871, No Iterations 2
ExecutionTime = 5.72 s  ClockTime = 6 s

Time = 15

smoothSolver:  Solving for Ux, Initial residual = 0.0204699, Final residual = 0.0012248276, No Iterations 2
smoothSolver:  Solving for Uy, Initial residual = 0.031303265, Final residual = 0.0021128249, No Iterations 2
smoothSolver:  Solving for Uz, Initial residual = 0.029960375, Final residual = 0.002071237, No Iterations 2
GAMG:  Solving for p, Initial residual = 0.030212886, Final residual = 0.00014449185, No Iterations 4
time step continuity errors : sum local = 2.5546425e-05, global = -3.3508895e-06, cumulative = -6.0012483e-05
smoothSolver:  Solving for epsilon, Initial residual = 0.0035369055, Final residual = 0.00024675274, No Iterations 2
smoothSolver:  Solving for k, Initial residual = 0.022662731, Final residual = 0.0018690744, No Iterations 2
ExecutionTime = 6.04 s  ClockTime = 6 s

Time = 16

smoothSolver:  Solving for Ux, Initial residual = 0.018390881, Final residual = 0.0011093056, No Iterations 2
smoothSolver:  Solving for Uy, Initial residual = 0.027951314, Final residual = 0.0019236077, No Iterations 2
smoothSolver:  Solving for Uz, Initial residual = 0.027057062, Final residual = 0.0018991892, No Iterations 2
GAMG:  Solving for p, Initial residual = 0.029097658, Final residual = 0.00024350618, No Iterations 4
time step continuity errors : sum local = 4.1041986e-05, global = -6.4633993e-06, cumulative = -6.6475882e-05
smoothSolver:  Solving for epsilon, Initial residual = 0.0036340906, Final residual = 0.00024972219, No Iterations 2
smoothSolver:  Solving for k, Initial residual = 0.021687189, Final residual = 0.0018086222, No Iterations 2
ExecutionTime = 6.37 s  ClockTime = 6 s

Time = 17

smoothSolver:  Solving for Ux, Initial residual = 0.016665465, Final residual = 0.0010329765, No Iterations 2
smoothSolver:  Solving for Uy, Initial residual = 0.025294, Final residual = 0.0017315891, No Iterations 2
smoothSolver:  Solving for Uz, Initial residual = 0.023621465, Final residual = 0.0016409886, No Iterations 2
GAMG:  Solving for p, Initial residual = 0.028634255, Final residual = 0.00023431054, No Iterations 4
time step continuity errors : sum local = 3.6859104e-05, global = -8.5525718e-06, cumulative = -7.5028454e-05
smoothSolver:  Solving for epsilon, Initial residual = 0.0036788632, Final residual = 0.00024943987, No Iterations 2
smoothSolver:  Solving for k, Initial residual = 0.020796432, Final residual = 0.0017454529, No Iterations 2
ExecutionTime = 6.68 s  ClockTime = 7 s

Time = 18

smoothSolver:  Solving for Ux, Initial residual = 0.015338585, Final residual = 0.00097255594, No Iterations 2
smoothSolver:  Solving for Uy, Initial residual = 0.023522755, Final residual = 0.0016335091, No Iterations 2
smoothSolver:  Solving for Uz, Initial residual = 0.02146607, Final residual = 0.0014706574, No Iterations 2
GAMG:  Solving for p, Initial residual = 0.027523371, Final residual = 0.00019017265, No Iterations 4
time step continuity errors : sum local = 2.915754e-05, global = -5.6056406e-06, cumulative = -8.0634095e-05
smoothSolver:  Solving for epsilon, Initial residual = 0.0036706702, Final residual = 0.00024651148, No Iterations 2
smoothSolver:  Solving for k, Initial residual = 0.019876036, Final residual = 0.0016816327, No Iterations 2
ExecutionTime = 7.02 s  ClockTime = 7 s

Time = 19

smoothSolver:  Solving for Ux, Initial residual = 0.014147276, Final residual = 0.00089657978, No Iterations 2
smoothSolver:  Solving for Uy, Initial residual = 0.021838496, Final residual = 0.0015585347, No Iterations 2
smoothSolver:  Solving for Uz, Initial residual = 0.020679323, Final residual = 0.0014536925, No Iterations 2
GAMG:  Solving for p, Initial residual = 0.025155481, Final residual = 0.00023694826, No Iterations 4
time step continuity errors : sum local = 3.7163154e-05, global = -3.2155573e-06, cumulative = -8.3849652e-05
smoothSolver:  Solving for epsilon, Initial residual = 0.0036277589, Final residual = 0.00024162502, No Iterations 2
smoothSolver:  Solving for k, Initial residual = 0.018916859, Final residual = 0.0016194344, No Iterations 2
ExecutionTime = 7.34 s  ClockTime = 7 s

Time = 20

smoothSolver:  Solving for Ux, Initial residual = 0.013035303, Final residual = 0.0008118771, No Iterations 2
smoothSolver:  Solving for Uy, Initial residual = 0.020662227, Final residual = 0.0014970029, No Iterations 2
smoothSolver:  Solving for Uz, Initial residual = 0.020399991, Final residual = 0.0014871625, No Iterations 2
GAMG:  Solving for p, Initial residual = 0.022912425, Final residual = 0.00017629648, No Iterations 4
time step continuity errors : sum local = 2.8581363e-05, global = 4.0623973e-06, cumulative = -7.9787255e-05
smoothSolver:  Solving for epsilon, Initial residual = 0.0035700588, Final residual = 0.00023545861, No Iterations 2
smoothSolver:  Solving for k, Initial residual = 0.017991711, Final residual = 0.0015604512, No Iterations 2
ExecutionTime = 7.66 s  ClockTime = 8 s

Time = 21

smoothSolver:  Solving for Ux, Initial residual = 0.01207818, Final residual = 0.00074224479, No Iterations 2
smoothSolver:  Solving for Uy, Initial residual = 0.01941874, Final residual = 0.0014241616, No Iterations 2
smoothSolver:  Solving for Uz, Initial residual = 0.01950857, Final residual = 0.0014642743, No Iterations 2
GAMG:  Solving for p, Initial residual = 0.021275291, Final residual = 0.00016794139, No Iterations 4
time step continuity errors : sum local = 2.74074e-05, global = -5.5521341e-06, cumulative = -8.5339389e-05
smoothSolver:  Solving for epsilon, Initial residual = 0.0035042927, Final residual = 0.0002284348, No Iterations 2
smoothSolver:  Solving for k, Initial residual = 0.017175267, Final residual = 0.0015047765, No Iterations 2
ExecutionTime = 7.98 s  ClockTime = 8 s

Time = 22

smoothSolver:  Solving for Ux, Initial residual = 0.011226774, Final residual = 0.00069135474, No Iterations 2
smoothSolver:  Solving for Uy, Initial residual = 0.018188858, Final residual = 0.0013478975, No Iterations 2
smoothSolver:  Solving for Uz, Initial residual = 0.017943074, Final residual = 0.0013730786, No Iterations 2
GAMG:  Solving for p, Initial residual = 0.020606362, Final residual = 0.00010593749, No Iterations 4
time step continuity errors : sum local = 1.696704e-05, global = -5.282531e-06, cumulative = -9.062192e-05
smoothSolver:  Solving for epsilon, Initial residual = 0.003426295, Final residual = 0.00022088695, No Iterations 2
smoothSolver:  Solving for k, Initial residual = 0.016474539, Final residual = 0.0014521505, No Iterations 2
ExecutionTime = 8.31 s  ClockTime = 8 s

Time = 23

smoothSolver:  Solving for Ux, Initial residual = 0.010439231, Final residual = 0.00065100984, No Iterations 2
smoothSolver:  Solving for Uy, Initial residual = 0.017274392, Final residual = 0.0012862366, No Iterations 2
smoothSolver:  Solving for Uz, Initial residual = 0.016464935, Final residual = 0.0012694043, No Iterations 2
GAMG:  Solving for p, Initial residual = 0.020022638, Final residual = 0.00012548462, No Iterations 4
time step continuity errors : sum local = 1.9651332e-05, global = -7.2472545e-06, cumulative = -9.7869174e-05
smoothSolver:  Solving for epsilon, Initial residual = 0.0033307912, Final residual = 0.0002129407, No Iterations 2
smoothSolver:  Solving for k, Initial residual = 0.015826838, Final residual = 0.0014021305, No Iterations 2
ExecutionTime = 8.63 s  ClockTime = 9 s

Time = 24

smoothSolver:  Solving for Ux, Initial residual = 0.0097032719, Final residual = 0.00061029549, No Iterations 2
smoothSolver:  Solving for Uy, Initial residual = 0.016261157, Final residual = 0.0012267779, No Iterations 2
smoothSolver:  Solving for Uz, Initial residual = 0.015527324, Final residual = 0.0012119749, No Iterations 2
GAMG:  Solving for p, Initial residual = 0.018738222, Final residual = 7.2204262e-05, No Iterations 4
time step continuity errors : sum local = 1.1244725e-05, global = -2.6443708e-06, cumulative = -0.00010051354
smoothSolver:  Solving for epsilon, Initial residual = 0.0032196208, Final residual = 0.00020479054, No Iterations 2
smoothSolver:  Solving for k, Initial residual = 0.015201526, Final residual = 0.0013546164, No Iterations 2
ExecutionTime = 8.96 s  ClockTime = 9 s

Time = 25

smoothSolver:  Solving for Ux, Initial residual = 0.0090169278, Final residual = 0.00056604304, No Iterations 2
smoothSolver:  Solving for Uy, Initial residual = 0.015274249, Final residual = 0.0011673867, No Iterations 2
smoothSolver:  Solving for Uz, Initial residual = 0.015099553, Final residual = 0.0012091697, No Iterations 2
GAMG:  Solving for p, Initial residual = 0.017118555, Final residual = 9.5699154e-05, No Iterations 4
time step continuity errors : sum local = 1.5022411e-05, global = -4.6378704e-06, cumulative = -0.00010515142
smoothSolver:  Solving for epsilon, Initial residual = 0.0030994443, Final residual = 0.00019652194, No Iterations 2
smoothSolver:  Solving for k, Initial residual = 0.014601546, Final residual = 0.0013093341, No Iterations 2
ExecutionTime = 9.3 s  ClockTime = 9 s

Time = 26

smoothSolver:  Solving for Ux, Initial residual = 0.0083953986, Final residual = 0.00052304184, No Iterations 2
smoothSolver:  Solving for Uy, Initial residual = 0.014457941, Final residual = 0.0011182958, No Iterations 2
smoothSolver:  Solving for Uz, Initial residual = 0.014707084, Final residual = 0.0012117865, No Iterations 2
GAMG:  Solving for p, Initial residual = 0.0157545, Final residual = 8.2636724e-05, No Iterations 4
time step continuity errors : sum local = 1.3097416e-05, global = 3.2274561e-06, cumulative = -0.00010192396
smoothSolver:  Solving for epsilon, Initial residual = 0.0029776802, Final residual = 0.00018832305, No Iterations 2
smoothSolver:  Solving for k, Initial residual = 0.01404265, Final residual = 0.0012658421, No Iterations 2
ExecutionTime = 9.62 s  ClockTime = 10 s

Time = 27

smoothSolver:  Solving for Ux, Initial residual = 0.0078252774, Final residual = 0.00048718189, No Iterations 2
smoothSolver:  Solving for Uy, Initial residual = 0.01377992, Final residual = 0.0010776046, No Iterations 2
smoothSolver:  Solving for Uz, Initial residual = 0.013925776, Final residual = 0.001181739, No Iterations 2
GAMG:  Solving for p, Initial residual = 0.014928986, Final residual = 4.1966009e-05, No Iterations 4
time step continuity errors : sum local = 6.6659643e-06, global = 1.9694427e-06, cumulative = -9.9954516e-05
smoothSolver:  Solving for epsilon, Initial residual = 0.0028590176, Final residual = 0.00018028, No Iterations 2
smoothSolver:  Solving for k, Initial residual = 0.013522729, Final residual = 0.001224005, No Iterations 2
ExecutionTime = 9.96 s  ClockTime = 10 s

Time = 28

smoothSolver:  Solving for Ux, Initial residual = 0.0072745572, Final residual = 0.00045744304, No Iterations 2
smoothSolver:  Solving for Uy, Initial residual = 0.013135345, Final residual = 0.0010381878, No Iterations 2
smoothSolver:  Solving for Uz, Initial residual = 0.012957783, Final residual = 0.0011256741, No Iterations 2
GAMG:  Solving for p, Initial residual = 0.014288837, Final residual = 0.00010704365, No Iterations 3
time step continuity errors : sum local = 1.6900977e-05, global = 5.5975374e-06, cumulative = -9.4356979e-05
smoothSolver:  Solving for epsilon, Initial residual = 0.0027415431, Final residual = 0.00017246286, No Iterations 2
smoothSolver:  Solving for k, Initial residual = 0.013030138, Final residual = 0.0011834512, No Iterations 2
ExecutionTime = 10.28 s  ClockTime = 10 s

Time = 29

smoothSolver:  Solving for Ux, Initial residual = 0.0067400658, Final residual = 0.00042984337, No Iterations 2
smoothSolver:  Solving for Uy, Initial residual = 0.012476811, Final residual = 0.00099643105, No Iterations 2
smoothSolver:  Solving for Uz, Initial residual = 0.012176108, Final residual = 0.0010749692, No Iterations 2
GAMG:  Solving for p, Initial residual = 0.013621965, Final residual = 0.00012395476, No Iterations 3
time step continuity errors : sum local = 1.9434447e-05, global = 8.4070899e-06, cumulative = -8.5949889e-05
smoothSolver:  Solving for epsilon, Initial residual = 0.0026228712, Final residual = 0.00016490602, No Iterations 2
smoothSolver:  Solving for k, Initial residual = 0.012553088, Final residual = 0.0011444339, No Iterations 2
ExecutionTime = 10.58 s  ClockTime = 11 s

Time = 30

smoothSolver:  Solving for Ux, Initial residual = 0.0062270526, Final residual = 0.000401879, No Iterations 2
smoothSolver:  Solving for Uy, Initial residual = 0.011871877, Final residual = 0.00095749077, No Iterations 2
smoothSolver:  Solving for Uz, Initial residual = 0.011811549, Final residual = 0.0010552341, No Iterations 2
GAMG:  Solving for p, Initial residual = 0.012768708, Final residual = 0.00012431215, No Iterations 3
time step continuity errors : sum local = 1.9416297e-05, global = 4.0164308e-06, cumulative = -8.1933458e-05
smoothSolver:  Solving for epsilon, Initial residual = 0.0025026438, Final residual = 0.00015757626, No Iterations 2
smoothSolver:  Solving for k, Initial residual = 0.012089728, Final residual = 0.0011066254, No Iterations 2
ExecutionTime = 10.89 s  ClockTime = 11 s

Time = 31

smoothSolver:  Solving for Ux, Initial residual = 0.0057558573, Final residual = 0.00037419831, No Iterations 2
smoothSolver:  Solving for Uy, Initial residual = 0.011388906, Final residual = 0.00092841422, No Iterations 2
smoothSolver:  Solving for Uz, Initial residual = 0.011695533, Final residual = 0.0010581852, No Iterations 2
GAMG:  Solving for p, Initial residual = 0.011786135, Final residual = 3.94566e-05, No Iterations 4
time step continuity errors : sum local = 6.1549004e-06, global = -1.4230623e-06, cumulative = -8.3356521e-05
smoothSolver:  Solving for epsilon, Initial residual = 0.0023825684, Final residual = 0.00015048172, No Iterations 2
smoothSolver:  Solving for k, Initial residual = 0.011640811, Final residual = 0.0010700644, No Iterations 2
ExecutionTime = 11.22 s  ClockTime = 11 s

Time = 32

smoothSolver:  Solving for Ux, Initial residual = 0.0053290583, Final residual = 0.00034969101, No Iterations 2
smoothSolver:  Solving for Uy, Initial residual = 0.010983217, Final residual = 0.00090293311, No Iterations 2
smoothSolver:  Solving for Uz, Initial residual = 0.011449276, Final residual = 0.0010546449, No Iterations 2
GAMG:  Solving for p, Initial residual = 0.010885571, Final residual = 8.8046986e-05, No Iterations 3
time step continuity errors : sum local = 1.3754593e-05, global = -6.8543451e-06, cumulative = -9.0210866e-05
smoothSolver:  Solving for epsilon, Initial residual = 0.0022647162, Final residual = 0.00014365679, No Iterations 2
smoothSolver:  Solving for k, Initial residual = 0.011205886, Final residual = 0.0010344976, No Iterations 2
ExecutionTime = 11.54 s  ClockTime = 12 s

Time = 33

smoothSolver:  Solving for Ux, Initial residual = 0.0049423945, Final residual = 0.0003299916, No Iterations 2
smoothSolver:  Solving for Uy, Initial residual = 0.010555112, Final residual = 0.00087291802, No Iterations 2
smoothSolver:  Solving for Uz, Initial residual = 0.010974154, Final residual = 0.0010304891, No Iterations 2
GAMG:  Solving for p, Initial residual = 0.010241799, Final residual = 7.4926334e-05, No Iterations 3
time step continuity errors : sum local = 1.169687e-05, global = -4.9848031e-06, cumulative = -9.5195669e-05
smoothSolver:  Solving for epsilon, Initial residual = 0.002150151, Final residual = 0.00013709248, No Iterations 2
smoothSolver:  Solving for k, Initial residual = 0.01077858, Final residual = 0.00099973525, No Iterations 2
ExecutionTime = 11.85 s  ClockTime = 12 s

Time = 34

smoothSolver:  Solving for Ux, Initial residual = 0.004587279, Final residual = 0.00031348246, No Iterations 2
smoothSolver:  Solving for Uy, Initial residual = 0.010072043, Final residual = 0.0008379736, No Iterations 2
smoothSolver:  Solving for Uz, Initial residual = 0.010443246, Final residual = 0.0009969434, No Iterations 2
GAMG:  Solving for p, Initial residual = 0.0097339907, Final residual = 5.0724093e-05, No Iterations 3
time step continuity errors : sum local = 7.9059137e-06, global = -1.5385685e-06, cumulative = -9.6734237e-05
smoothSolver:  Solving for epsilon, Initial residual = 0.002038882, Final residual = 0.00013075167, No Iterations 2
smoothSolver:  Solving for k, Initial residual = 0.010354851, Final residual = 0.00096571612, No Iterations 2
ExecutionTime = 12.16 s  ClockTime = 12 s

Time = 35

smoothSolver:  Solving for Ux, Initial residual = 0.0042513347, Final residual = 0.00029692503, No Iterations 2
smoothSolver:  Solving for Uy, Initial residual = 0.0096067425, Final residual = 0.00080433008, No Iterations 2
smoothSolver:  Solving for Uz, Initial residual = 0.010128272, Final residual = 0.00097513725, No Iterations 2
GAMG:  Solving for p, Initial residual = 0.0091940114, Final residual = 6.3199404e-05, No Iterations 3
time step continuity errors : sum local = 9.820315e-06, global = 1.3974699e-06, cumulative = -9.5336767e-05
smoothSolver:  Solving for epsilon, Initial residual = 0.0019302328, Final residual = 0.00012461627, No Iterations 2
smoothSolver:  Solving for k, Initial residual = 0.0099379357, Final residual = 0.00093231793, No Iterations 2
ExecutionTime = 12.48 s  ClockTime = 12 s

Time = 36

smoothSolver:  Solving for Ux, Initial residual = 0.0039366855, Final residual = 0.00027992801, No Iterations 2
smoothSolver:  Solving for Uy, Initial residual = 0.0092287582, Final residual = 0.00077696091, No Iterations 2
smoothSolver:  Solving for Uz, Initial residual = 0.010076418, Final residual = 0.00097288073, No Iterations 2
GAMG:  Solving for p, Initial residual = 0.0085766696, Final residual = 7.9486051e-05, No Iterations 3
time step continuity errors : sum local = 1.2304943e-05, global = 3.3224763e-06, cumulative = -9.2014291e-05
smoothSolver:  Solving for epsilon, Initial residual = 0.0018239773, Final residual = 0.00011867591, No Iterations 2
smoothSolver:  Solving for k, Initial residual = 0.0095294471, Final residual = 0.00089958232, No Iterations 2
ExecutionTime = 12.8 s  ClockTime = 13 s

Time = 37

smoothSolver:  Solving for Ux, Initial residual = 0.0036515779, Final residual = 0.00026392277, No Iterations 2
smoothSolver:  Solving for Uy, Initial residual = 0.0088915507, Final residual = 0.00075150305, No Iterations 2
smoothSolver:  Solving for Uz, Initial residual = 0.010061567, Final residual = 0.0009768536, No Iterations 2
GAMG:  Solving for p, Initial residual = 0.0080233057, Final residual = 7.3738971e-05, No Iterations 3
time step continuity errors : sum local = 1.1375213e-05, global = 4.2906283e-06, cumulative = -8.7723663e-05
smoothSolver:  Solving for epsilon, Initial residual = 0.00172051, Final residual = 0.00011291951, No Iterations 2
smoothSolver:  Solving for k, Initial residual = 0.0091291303, Final residual = 0.00086749776, No Iterations 2
ExecutionTime = 13.12 s  ClockTime = 13 s

Time = 38

smoothSolver:  Solving for Ux, Initial residual = 0.0033979836, Final residual = 0.00025054211, No Iterations 2
smoothSolver:  Solving for Uy, Initial residual = 0.0085037728, Final residual = 0.00072248248, No Iterations 2
smoothSolver:  Solving for Uz, Initial residual = 0.0098985656, Final residual = 0.00097081614, No Iterations 2
GAMG:  Solving for p, Initial residual = 0.0074888179, Final residual = 4.5970927e-05, No Iterations 3
time step continuity errors : sum local = 7.0731942e-06, global = 8.9989596e-08, cumulative = -8.7633673e-05
smoothSolver:  Solving for epsilon, Initial residual = 0.0016205282, Final residual = 0.00010735242, No Iterations 2
smoothSolver:  Solving for k, Initial residual = 0.0087362661, Final residual = 0.00083593532, No Iterations 2
ExecutionTime = 13.44 s  ClockTime = 13 s

Time = 39

smoothSolver:  Solving for Ux, Initial residual = 0.0031729769, Final residual = 0.0002400753, No Iterations 2
smoothSolver:  Solving for Uy, Initial residual = 0.008045889, Final residual = 0.00068803675, No Iterations 2
smoothSolver:  Solving for Uz, Initial residual = 0.0095943545, Final residual = 0.00095285485, No Iterations 2
GAMG:  Solving for p, Initial residual = 0.0069830138, Final residual = 3.4532655e-05, No Iterations 3
time step continuity errors : sum local = 5.3011896e-06, global = -7.5625524e-07, cumulative = -8.8389928e-05
smoothSolver:  Solving for epsilon, Initial residual = 0.0015241632, Final residual = 0.00010195707, No Iterations 2
smoothSolver:  Solving for k, Initial residual = 0.0083482965, Final residual = 0.00080482892, No Iterations 2
ExecutionTime = 13.77 s  ClockTime = 14 s

Time = 40

smoothSolver:  Solving for Ux, Initial residual = 0.0029680044, Final residual = 0.00023058634, No Iterations 2
smoothSolver:  Solving for Uy, Initial residual = 0.007552646, Final residual = 0.00065193506, No Iterations 2
smoothSolver:  Solving for Uz, Initial residual = 0.0092899639, Final residual = 0.00031907341, No Iterations 3
GAMG:  Solving for p, Initial residual = 0.0066527158, Final residual = 4.7625105e-05, No Iterations 3
time step continuity errors : sum local = 7.2858848e-06, global = -3.4062549e-06, cumulative = -9.1796183e-05
smoothSolver:  Solving for epsilon, Initial residual = 0.0014314918, Final residual = 9.6734148e-05, No Iterations 2
smoothSolver:  Solving for k, Initial residual = 0.0079664234, Final residual = 0.00077416111, No Iterations 2
ExecutionTime = 14.09 s  ClockTime = 14 s

Time = 41

smoothSolver:  Solving for Ux, Initial residual = 0.0027809872, Final residual = 0.00022122424, No Iterations 2
smoothSolver:  Solving for Uy, Initial residual = 0.0071082615, Final residual = 0.00062038685, No Iterations 2
smoothSolver:  Solving for Uz, Initial residual = 0.0088402041, Final residual = 0.00030400991, No Iterations 3
GAMG:  Solving for p, Initial residual = 0.0063191839, Final residual = 4.9173032e-05, No Iterations 3
time step continuity errors : sum local = 7.4920115e-06, global = -3.1070663e-06, cumulative = -9.4903249e-05
smoothSolver:  Solving for epsilon, Initial residual = 0.0013423454, Final residual = 9.1654736e-05, No Iterations 2
smoothSolver:  Solving for k, Initial residual = 0.0075922098, Final residual = 0.00074389651, No Iterations 2
ExecutionTime = 14.4 s  ClockTime = 14 s

Time = 42

smoothSolver:  Solving for Ux, Initial residual = 0.0026070022, Final residual = 0.00021147663, No Iterations 2
smoothSolver:  Solving for Uy, Initial residual = 0.006711385, Final residual = 0.00059099257, No Iterations 2
smoothSolver:  Solving for Uz, Initial residual = 0.0085698173, Final residual = 0.00029449035, No Iterations 3
GAMG:  Solving for p, Initial residual = 0.0059223072, Final residual = 3.5446881e-05, No Iterations 3
time step continuity errors : sum local = 5.3775852e-06, global = -2.1712112e-06, cumulative = -9.7074461e-05
smoothSolver:  Solving for epsilon, Initial residual = 0.001256937, Final residual = 8.6722562e-05, No Iterations 2
smoothSolver:  Solving for k, Initial residual = 0.0072273935, Final residual = 0.00071415759, No Iterations 2
ExecutionTime = 14.72 s  ClockTime = 15 s

Time = 43

smoothSolver:  Solving for Ux, Initial residual = 0.0024460942, Final residual = 0.00020190165, No Iterations 2
smoothSolver:  Solving for Uy, Initial residual = 0.0063192852, Final residual = 0.00056131899, No Iterations 2
smoothSolver:  Solving for Uz, Initial residual = 0.008493339, Final residual = 0.00029399028, No Iterations 3
GAMG:  Solving for p, Initial residual = 0.0055428055, Final residual = 4.6379556e-05, No Iterations 3
time step continuity errors : sum local = 7.0043799e-06, global = 2.1911628e-06, cumulative = -9.4883298e-05
smoothSolver:  Solving for epsilon, Initial residual = 0.0011754758, Final residual = 8.1946166e-05, No Iterations 2
smoothSolver:  Solving for k, Initial residual = 0.0068736199, Final residual = 0.00068499865, No Iterations 2
ExecutionTime = 15.05 s  ClockTime = 15 s

Time = 44

smoothSolver:  Solving for Ux, Initial residual = 0.0023014913, Final residual = 0.00019364768, No Iterations 2
smoothSolver:  Solving for Uy, Initial residual = 0.0059257676, Final residual = 0.00053184401, No Iterations 2
smoothSolver:  Solving for Uz, Initial residual = 0.0084279769, Final residual = 0.00029613022, No Iterations 3
GAMG:  Solving for p, Initial residual = 0.0052003718, Final residual = 3.6436259e-05, No Iterations 3
time step continuity errors : sum local = 5.4785584e-06, global = 1.7507763e-06, cumulative = -9.3132522e-05
smoothSolver:  Solving for epsilon, Initial residual = 0.0010983138, Final residual = 7.7334307e-05, No Iterations 2
smoothSolver:  Solving for k, Initial residual = 0.0065308138, Final residual = 0.00022324964, No Iterations 3
ExecutionTime = 15.37 s  ClockTime = 15 s

Time = 45

smoothSolver:  Solving for Ux, Initial residual = 0.0021772217, Final residual = 0.00018759003, No Iterations 2
smoothSolver:  Solving for Uy, Initial residual = 0.0055325702, Final residual = 0.00050339372, No Iterations 2
smoothSolver:  Solving for Uz, Initial residual = 0.0082286755, Final residual = 0.00029455605, No Iterations 3
GAMG:  Solving for p, Initial residual = 0.0049250801, Final residual = 2.6950249e-05, No Iterations 3
time step continuity errors : sum local = 4.032307e-06, global = 4.1610801e-07, cumulative = -9.2716414e-05
smoothSolver:  Solving for epsilon, Initial residual = 0.0010400652, Final residual = 7.4004638e-05, No Iterations 2
smoothSolver:  Solving for k, Initial residual = 0.0062103418, Final residual = 0.00021501937, No Iterations 3
ExecutionTime = 15.68 s  ClockTime = 16 s

Time = 46

smoothSolver:  Solving for Ux, Initial residual = 0.0020639673, Final residual = 0.00018217165, No Iterations 2
smoothSolver:  Solving for Uy, Initial residual = 0.0051865673, Final residual = 0.00048025772, No Iterations 2
smoothSolver:  Solving for Uz, Initial residual = 0.007928206, Final residual = 0.00028789263, No Iterations 3
GAMG:  Solving for p, Initial residual = 0.0046733131, Final residual = 2.6877584e-05, No Iterations 3
time step continuity errors : sum local = 3.9996653e-06, global = -1.3936394e-07, cumulative = -9.2855778e-05
smoothSolver:  Solving for epsilon, Initial residual = 0.00097948356, Final residual = 7.046195e-05, No Iterations 2
smoothSolver:  Solving for k, Initial residual = 0.0058924521, Final residual = 0.00020658751, No Iterations 3
ExecutionTime = 16.02 s  ClockTime = 16 s

Time = 47

smoothSolver:  Solving for Ux, Initial residual = 0.0019578981, Final residual = 0.0001764248, No Iterations 2
smoothSolver:  Solving for Uy, Initial residual = 0.004877365, Final residual = 0.00045936834, No Iterations 2
smoothSolver:  Solving for Uz, Initial residual = 0.0076758047, Final residual = 0.00028089756, No Iterations 3
GAMG:  Solving for p, Initial residual = 0.0043946701, Final residual = 3.9456168e-05, No Iterations 3
time step continuity errors : sum local = 5.8374514e-06, global = -2.2761664e-06, cumulative = -9.5131944e-05
smoothSolver:  Solving for epsilon, Initial residual = 0.00091907409, Final residual = 6.6807604e-05, No Iterations 2
smoothSolver:  Solving for k, Initial residual = 0.0055806358, Final residual = 0.0001980901, No Iterations 3
ExecutionTime = 16.33 s  ClockTime = 16 s

Time = 48

smoothSolver:  Solving for Ux, Initial residual = 0.001855954, Final residual = 0.00017022459, No Iterations 2
smoothSolver:  Solving for Uy, Initial residual = 0.0045990676, Final residual = 0.00043903134, No Iterations 2
smoothSolver:  Solving for Uz, Initial residual = 0.0075203666, Final residual = 0.00027681344, No Iterations 3
GAMG:  Solving for p, Initial residual = 0.0040844903, Final residual = 3.9896073e-05, No Iterations 3
time step continuity errors : sum local = 5.8683698e-06, global = -2.4278424e-06, cumulative = -9.7559786e-05
smoothSolver:  Solving for epsilon, Initial residual = 0.00086010214, Final residual = 6.3124042e-05, No Iterations 2
smoothSolver:  Solving for k, Initial residual = 0.00527746, Final residual = 0.00018959188, No Iterations 3
ExecutionTime = 16.65 s  ClockTime = 17 s

Time = 49

smoothSolver:  Solving for Ux, Initial residual = 0.0017603864, Final residual = 0.00016407479, No Iterations 2
smoothSolver:  Solving for Uy, Initial residual = 0.0043419446, Final residual = 0.00041922978, No Iterations 2
smoothSolver:  Solving for Uz, Initial residual = 0.0073853972, Final residual = 0.00027421509, No Iterations 3
GAMG:  Solving for p, Initial residual = 0.0037819927, Final residual = 2.5238243e-05, No Iterations 3
time step continuity errors : sum local = 3.6926067e-06, global = -1.3019944e-06, cumulative = -9.8861781e-05
smoothSolver:  Solving for epsilon, Initial residual = 0.00080328226, Final residual = 5.9470236e-05, No Iterations 2
smoothSolver:  Solving for k, Initial residual = 0.0049840532, Final residual = 0.0001811651, No Iterations 3
ExecutionTime = 16.98 s  ClockTime = 17 s

Time = 50

smoothSolver:  Solving for Ux, Initial residual = 0.0016726283, Final residual = 0.00015847264, No Iterations 2
smoothSolver:  Solving for Uy, Initial residual = 0.0041095183, Final residual = 0.000400854, No Iterations 2
smoothSolver:  Solving for Uz, Initial residual = 0.0071918472, Final residual = 0.00026986952, No Iterations 3
GAMG:  Solving for p, Initial residual = 0.0035168246, Final residual = 1.7384903e-05, No Iterations 3
time step continuity errors : sum local = 2.5305413e-06, global = 4.8230543e-07, cumulative = -9.8379475e-05
smoothSolver:  Solving for epsilon, Initial residual = 0.00074913439, Final residual = 5.5889342e-05, No Iterations 2
smoothSolver:  Solving for k, Initial residual = 0.0047014092, Final residual = 0.00017285543, No Iterations 3
ExecutionTime = 17.3 s  ClockTime = 17 s

surfaceFieldValue pressureDrop write:
    total faces   = 1200
    total area    = 0.6

    areaAverage(inlet) of p = 0.60842539

Time = 51

smoothSolver:  Solving for Ux, Initial residual = 0.0015916995, Final residual = 0.00015346409, No Iterations 2
smoothSolver:  Solving for Uy, Initial residual = 0.0038863848, Final residual = 0.00038309764, No Iterations 2
smoothSolver:  Solving for Uz, Initial residual = 0.0069268236, Final residual = 0.00026236723, No Iterations 3
GAMG:  Solving for p, Initial residual = 0.0032845406, Final residual = 1.9051897e-05, No Iterations 3
time step continuity errors : sum local = 2.7589517e-06, global = 1.3966837e-06, cumulative = -9.6982792e-05
smoothSolver:  Solving for epsilon, Initial residual = 0.00069787516, Final residual = 5.2410153e-05, No Iterations 2
smoothSolver:  Solving for k, Initial residual = 0.0044298925, Final residual = 0.00016469614, No Iterations 3
ExecutionTime = 17.62 s  ClockTime = 18 s

Time = 52

smoothSolver:  Solving for Ux, Initial residual = 0.0015167261, Final residual = 0.00014884798, No Iterations 2
smoothSolver:  Solving for Uy, Initial residual = 0.0036641837, Final residual = 0.00036527684, No Iterations 2
smoothSolver:  Solving for Uz, Initial residual = 0.0066408728, Final residual = 0.00025323932, No Iterations 3
GAMG:  Solving for p, Initial residual = 0.0030731876, Final residual = 1.9980959e-05, No Iterations 3
time step continuity errors : sum local = 2.8786329e-06, global = 1.5530148e-06, cumulative = -9.5429777e-05
smoothSolver:  Solving for epsilon, Initial residual = 0.00064955563, Final residual = 4.906443e-05, No Iterations 2
smoothSolver:  Solving for k, Initial residual = 0.0041699255, Final residual = 0.00015670734, No Iterations 3
ExecutionTime = 17.98 s  ClockTime = 18 s

Time = 53

smoothSolver:  Solving for Ux, Initial residual = 0.0014469098, Final residual = 0.00014422844, No Iterations 2
smoothSolver:  Solving for Uy, Initial residual = 0.0034493717, Final residual = 0.0001179787, No Iterations 3
smoothSolver:  Solving for Uz, Initial residual = 0.00639141, Final residual = 0.0002449566, No Iterations 3
GAMG:  Solving for p, Initial residual = 0.0028359172, Final residual = 2.0194271e-05, No Iterations 3
time step continuity errors : sum local = 2.894045e-06, global = 1.3520905e-06, cumulative = -9.4077686e-05
smoothSolver:  Solving for epsilon, Initial residual = 0.000604162, Final residual = 4.5860747e-05, No Iterations 2
smoothSolver:  Solving for k, Initial residual = 0.0039221149, Final residual = 0.00014891461, No Iterations 3
ExecutionTime = 18.32 s  ClockTime = 18 s

Time = 54

smoothSolver:  Solving for Ux, Initial residual = 0.0013813407, Final residual = 4.7983979e-05, No Iterations 3
smoothSolver:  Solving for Uy, Initial residual = 0.0031669123, Final residual = 0.00010914966, No Iterations 3
smoothSolver:  Solving for Uz, Initial residual = 0.0061933328, Final residual = 0.00023841659, No Iterations 3
GAMG:  Solving for p, Initial residual = 0.002733893, Final residual = 2.258124e-05, No Iterations 3
time step continuity errors : sum local = 3.2183092e-06, global = 1.8035395e-06, cumulative = -9.2274147e-05
smoothSolver:  Solving for epsilon, Initial residual = 0.00056246413, Final residual = 4.2869194e-05, No Iterations 2
smoothSolver:  Solving for k, Initial residual = 0.0036839289, Final residual = 0.00014113449, No Iterations 3
ExecutionTime = 18.64 s  ClockTime = 19 s

Time = 55

smoothSolver:  Solving for Ux, Initial residual = 0.0013104461, Final residual = 4.6102354e-05, No Iterations 3
smoothSolver:  Solving for Uy, Initial residual = 0.0030067802, Final residual = 0.00010481106, No Iterations 3
smoothSolver:  Solving for Uz, Initial residual = 0.0061312363, Final residual = 0.00023699734, No Iterations 3
GAMG:  Solving for p, Initial residual = 0.0025744032, Final residual = 2.4393951e-05, No Iterations 3
time step continuity errors : sum local = 3.4581206e-06, global = -9.4765654e-07, cumulative = -9.3221803e-05
smoothSolver:  Solving for epsilon, Initial residual = 0.00052383219, Final residual = 4.0035283e-05, No Iterations 2
smoothSolver:  Solving for k, Initial residual = 0.0034583847, Final residual = 0.00013364842, No Iterations 3
ExecutionTime = 18.98 s  ClockTime = 19 s

Time = 56

smoothSolver:  Solving for Ux, Initial residual = 0.0012452659, Final residual = 4.4398737e-05, No Iterations 3
smoothSolver:  Solving for Uy, Initial residual = 0.0029142706, Final residual = 0.00010291146, No Iterations 3
smoothSolver:  Solving for Uz, Initial residual = 0.0059952665, Final residual = 0.0002328986, No Iterations 3
GAMG:  Solving for p, Initial residual = 0.0023873111, Final residual = 1.5973894e-05, No Iterations 3
time step continuity errors : sum local = 2.2534323e-06, global = -4.6555726e-07, cumulative = -9.3687361e-05
smoothSolver:  Solving for epsilon, Initial residual = 0.00048775256, Final residual = 3.7350745e-05, No Iterations 2
smoothSolver:  Solving for k, Initial residual = 0.0032444548, Final residual = 0.00012642677, No Iterations 3
ExecutionTime = 19.31 s  ClockTime = 19 s

Time = 57

smoothSolver:  Solving for Ux, Initial residual = 0.0011853054, Final residual = 4.2941937e-05, No Iterations 3
smoothSolver:  Solving for Uy, Initial residual = 0.0028029251, Final residual = 9.9969232e-05, No Iterations 3
smoothSolver:  Solving for Uz, Initial residual = 0.0057064593, Final residual = 0.00022292923, No Iterations 3
GAMG:  Solving for p, Initial residual = 0.0022352255, Final residual = 1.2981655e-05, No Iterations 3
time step continuity errors : sum local = 1.8237041e-06, global = 1.4251536e-07, cumulative = -9.3544845e-05
smoothSolver:  Solving for epsilon, Initial residual = 0.00045397103, Final residual = 3.4812811e-05, No Iterations 2
smoothSolver:  Solving for k, Initial residual = 0.0030416808, Final residual = 0.00011946463, No Iterations 3
ExecutionTime = 19.65 s  ClockTime = 20 s

Time = 58

smoothSolver:  Solving for Ux, Initial residual = 0.0011287151, Final residual = 4.162371e-05, No Iterations 3
smoothSolver:  Solving for Uy, Initial residual = 0.0026414027, Final residual = 9.4804071e-05, No Iterations 3
smoothSolver:  Solving for Uz, Initial residual = 0.0053382461, Final residual = 0.00020967001, No Iterations 3
GAMG:  Solving for p, Initial residual = 0.0020800478, Final residual = 1.7444718e-05, No Iterations 3
time step continuity errors : sum local = 2.4409934e-06, global = 4.405626e-07, cumulative = -9.3104283e-05
smoothSolver:  Solving for epsilon, Initial residual = 0.00042238714, Final residual = 3.2420326e-05, No Iterations 2
smoothSolver:  Solving for k, Initial residual = 0.0028495783, Final residual = 0.00011274771, No Iterations 3
ExecutionTime = 19.97 s  ClockTime = 20 s

Time = 59

smoothSolver:  Solving for Ux, Initial residual = 0.0010752425, Final residual = 4.0272471e-05, No Iterations 3
smoothSolver:  Solving for Uy, Initial residual = 0.0024610402, Final residual = 8.8891678e-05, No Iterations 3
smoothSolver:  Solving for Uz, Initial residual = 0.0050032185, Final residual = 0.00019757495, No Iterations 3
GAMG:  Solving for p, Initial residual = 0.0019322138, Final residual = 1.5041982e-05, No Iterations 3
time step continuity errors : sum local = 2.0957823e-06, global = 9.3702054e-07, cumulative = -9.2167262e-05
smoothSolver:  Solving for epsilon, Initial residual = 0.00039284483, Final residual = 3.017426e-05, No Iterations 2
smoothSolver:  Solving for k, Initial residual = 0.0026679183, Final residual = 0.00010626791, No Iterations 3
ExecutionTime = 20.3 s  ClockTime = 20 s

Time = 60

smoothSolver:  Solving for Ux, Initial residual = 0.001023712, Final residual = 3.8809496e-05, No Iterations 3
smoothSolver:  Solving for Uy, Initial residual = 0.0023064039, Final residual = 8.4098051e-05, No Iterations 3
smoothSolver:  Solving for Uz, Initial residual = 0.0047480518, Final residual = 0.00018849854, No Iterations 3
GAMG:  Solving for p, Initial residual = 0.001804702, Final residual = 1.7668121e-05, No Iterations 3
time step continuity errors : sum local = 2.4507398e-06, global = 8.3665654e-07, cumulative = -9.1330606e-05
smoothSolver:  Solving for epsilon, Initial residual = 0.00036526689, Final residual = 2.806913e-05, No Iterations 2
smoothSolver:  Solving for k, Initial residual = 0.0024964704, Final residual = 0.0001000301, No Iterations 3
ExecutionTime = 20.63 s  ClockTime = 21 s

Time = 61

smoothSolver:  Solving for Ux, Initial residual = 0.00097289397, Final residual = 3.7308216e-05, No Iterations 3
smoothSolver:  Solving for Uy, Initial residual = 0.0021921943, Final residual = 8.0914908e-05, No Iterations 3
smoothSolver:  Solving for Uz, Initial residual = 0.0045372397, Final residual = 0.00018124736, No Iterations 3
GAMG:  Solving for p, Initial residual = 0.0016856541, Final residual = 1.4868441e-05, No Iterations 3
time step continuity errors : sum local = 2.0531366e-06, global = 7.9163585e-07, cumulative = -9.053897e-05
smoothSolver:  Solving for epsilon, Initial residual = 0.00033959592, Final residual = 2.6094454e-05, No Iterations 2
smoothSolver:  Solving for k, Initial residual = 0.0023344759, Final residual = 9.4024449e-05, No Iterations 3
ExecutionTime = 20.95 s  ClockTime = 21 s

Time = 62

smoothSolver:  Solving for Ux, Initial residual = 0.00092500409, Final residual = 3.5907081e-05, No Iterations 3
smoothSolver:  Solving for Uy, Initial residual = 0.0021002554, Final residual = 7.838432e-05, No Iterations 3
smoothSolver:  Solving for Uz, Initial residual = 0.0043175436, Final residual = 0.00017368992, No Iterations 3
GAMG:  Solving for p, Initial residual = 0.001587181, Final residual = 1.51027e-05, No Iterations 3
time step continuity errors : sum local = 2.0768886e-06, global = 1.0576608e-06, cumulative = -8.9481309e-05
smoothSolver:  Solving for epsilon, Initial residual = 0.00031570682, Final residual = 2.4241373e-05, No Iterations 2
smoothSolver:  Solving for k, Initial residual = 0.0021812751, Final residual = 8.8251398e-05, No Iterations 3
ExecutionTime = 21.28 s  ClockTime = 21 s

Time = 63

smoothSolver:  Solving for Ux, Initial residual = 0.000880811, Final residual = 3.4654835e-05, No Iterations 3
smoothSolver:  Solving for Uy, Initial residual = 0.0020055054, Final residual = 7.5479298e-05, No Iterations 3
smoothSolver:  Solving for Uz, Initial residual = 0.0040700461, Final residual = 0.00016495339, No Iterations 3
GAMG:  Solving for p, Initial residual = 0.001502635, Final residual = 1.4244578e-05, No Iterations 3
time step continuity errors : sum local = 1.9517199e-06, global = 4.8732789e-07, cumulative = -8.8993981e-05
smoothSolver:  Solving for epsilon, Initial residual = 0.0002935019, Final residual = 2.250526e-05, No Iterations 2
smoothSolver:  Solving for k, Initial residual = 0.0020364833, Final residual = 8.2703934e-05, No Iterations 3
ExecutionTime = 21.6 s  ClockTime = 22 s

Time = 64

smoothSolver:  Solving for Ux, Initial residual = 0.00083938215, Final residual = 3.3460627e-05, No Iterations 3
smoothSolver:  Solving for Uy, Initial residual = 0.0019041704, Final residual = 7.2113517e-05, No Iterations 3
smoothSolver:  Solving for Uz, Initial residual = 0.0038139507, Final residual = 0.00015573586, No Iterations 3
GAMG:  Solving for p, Initial residual = 0.0014159619, Final residual = 1.2157348e-05, No Iterations 3
time step continuity errors : sum local = 1.6599671e-06, global = 7.3568847e-07, cumulative = -8.8258293e-05
smoothSolver:  Solving for epsilon, Initial residual = 0.00027283761, Final residual = 2.088078e-05, No Iterations 2
smoothSolver:  Solving for k, Initial residual = 0.0018996621, Final residual = 7.7379293e-05, No Iterations 3
ExecutionTime = 21.93 s  ClockTime = 22 s

Time = 65

smoothSolver:  Solving for Ux, Initial residual = 0.00080090895, Final residual = 3.2275781e-05, No Iterations 3
smoothSolver:  Solving for Uy, Initial residual = 0.0018044507, Final residual = 6.8767449e-05, No Iterations 3
smoothSolver:  Solving for Uz, Initial residual = 0.0035771611, Final residual = 0.00014722132, No Iterations 3
GAMG:  Solving for p, Initial residual = 0.0013193203, Final residual = 1.0957243e-05, No Iterations 3
time step continuity errors : sum local = 1.4911383e-06, global = 6.9860444e-07, cumulative = -8.7559688e-05
smoothSolver:  Solving for epsilon, Initial residual = 0.00025367375, Final residual = 1.9364824e-05, No Iterations 2
smoothSolver:  Solving for k, Initial residual = 0.0017705685, Final residual = 7.2280415e-05, No Iterations 3
ExecutionTime = 22.25 s  ClockTime = 22 s

Time = 66

smoothSolver:  Solving for Ux, Initial residual = 0.00076477458, Final residual = 3.1093831e-05, No Iterations 3
smoothSolver:  Solving for Uy, Initial residual = 0.0017132223, Final residual = 6.5772695e-05, No Iterations 3
smoothSolver:  Solving for Uz, Initial residual = 0.0033681823, Final residual = 0.00013990544, No Iterations 3
GAMG:  Solving for p, Initial residual = 0.0012195344, Final residual = 1.1578196e-05, No Iterations 3
time step continuity errors : sum local = 1.5703956e-06, global = 5.8794002e-07, cumulative = -8.6971748e-05
smoothSolver:  Solving for epsilon, Initial residual = 0.00023593476, Final residual = 1.7950109e-05, No Iterations 2
smoothSolver:  Solving for k, Initial residual = 0.0016488829, Final residual = 6.7403963e-05, No Iterations 3
ExecutionTime = 22.6 s  ClockTime = 23 s

Time = 67

smoothSolver:  Solving for Ux, Initial residual = 0.00072945062, Final residual = 2.9929016e-05, No Iterations 3
smoothSolver:  Solving for Uy, Initial residual = 0.0016314605, Final residual = 6.3092524e-05, No Iterations 3
smoothSolver:  Solving for Uz, Initial residual = 0.0031773676, Final residual = 0.00013348886, No Iterations 3
GAMG:  Solving for p, Initial residual = 0.0011287316, Final residual = 7.3229127e-06, No Iterations 4
time step continuity errors : sum local = 9.898841e-07, global = -4.800275e-07, cumulative = -8.7451776e-05
smoothSolver:  Solving for epsilon, Initial residual = 0.00021957439, Final residual = 1.6635234e-05, No Iterations 2
smoothSolver:  Solving for k, Initial residual = 0.0015342132, Final residual = 6.2752919e-05, No Iterations 3
ExecutionTime = 22.93 s  ClockTime = 23 s

Time = 68

smoothSolver:  Solving for Ux, Initial residual = 0.00069517984, Final residual = 2.8817506e-05, No Iterations 3
smoothSolver:  Solving for Uy, Initial residual = 0.0015552132, Final residual = 6.0486067e-05, No Iterations 3
smoothSolver:  Solving for Uz, Initial residual = 0.0029945181, Final residual = 0.00012743479, No Iterations 3
GAMG:  Solving for p, Initial residual = 0.0010511235, Final residual = 9.100699e-06, No Iterations 3
time step continuity errors : sum local = 1.2260526e-06, global = 7.2837488e-07, cumulative = -8.6723401e-05
smoothSolver:  Solving for epsilon, Initial residual = 0.00020438434, Final residual = 1.5413687e-05, No Iterations 2
smoothSolver:  Solving for k, Initial residual = 0.0014260999, Final residual = 5.8330374e-05, No Iterations 3
ExecutionTime = 23.26 s  ClockTime = 23 s

Time = 69

smoothSolver:  Solving for Ux, Initial residual = 0.00066445449, Final residual = 2.7805443e-05, No Iterations 3
smoothSolver:  Solving for Uy, Initial residual = 0.0014801264, Final residual = 5.7774033e-05, No Iterations 3
smoothSolver:  Solving for Uz, Initial residual = 0.002818461, Final residual = 0.00012150444, No Iterations 3
GAMG:  Solving for p, Initial residual = 0.00098733388, Final residual = 8.3686665e-06, No Iterations 3
time step continuity errors : sum local = 1.1243433e-06, global = 6.3008925e-07, cumulative = -8.6093312e-05
smoothSolver:  Solving for epsilon, Initial residual = 0.00019027113, Final residual = 1.4281084e-05, No Iterations 2
smoothSolver:  Solving for k, Initial residual = 0.0013243977, Final residual = 5.4137024e-05, No Iterations 3
ExecutionTime = 23.58 s  ClockTime = 24 s

Time = 70

smoothSolver:  Solving for Ux, Initial residual = 0.00063566155, Final residual = 2.6812338e-05, No Iterations 3
smoothSolver:  Solving for Uy, Initial residual = 0.0014058373, Final residual = 5.5008357e-05, No Iterations 3
smoothSolver:  Solving for Uz, Initial residual = 0.0026549016, Final residual = 0.00011585125, No Iterations 3
GAMG:  Solving for p, Initial residual = 0.00092929473, Final residual = 8.3056117e-06, No Iterations 3
time step continuity errors : sum local = 1.1130034e-06, global = 6.2223037e-07, cumulative = -8.5471081e-05
smoothSolver:  Solving for epsilon, Initial residual = 0.00017716585, Final residual = 1.3227769e-05, No Iterations 2
smoothSolver:  Solving for k, Initial residual = 0.0012288505, Final residual = 5.0170128e-05, No Iterations 3
ExecutionTime = 23.93 s  ClockTime = 24 s

Time = 71

smoothSolver:  Solving for Ux, Initial residual = 0.00060832261, Final residual = 2.5809104e-05, No Iterations 3
smoothSolver:  Solving for Uy, Initial residual = 0.0013346775, Final residual = 5.2362138e-05, No Iterations 3
smoothSolver:  Solving for Uz, Initial residual = 0.0025071035, Final residual = 0.00011070953, No Iterations 3
GAMG:  Solving for p, Initial residual = 0.00087137952, Final residual = 8.0363536e-06, No Iterations 3
time step continuity errors : sum local = 1.0741859e-06, global = 5.4317399e-07, cumulative = -8.4927907e-05
smoothSolver:  Solving for epsilon, Initial residual = 0.00016497178, Final residual = 1.2253188e-05, No Iterations 2
smoothSolver:  Solving for k, Initial residual = 0.0011393542, Final residual = 4.6432805e-05, No Iterations 3
ExecutionTime = 24.28 s  ClockTime = 24 s

Time = 72

smoothSolver:  Solving for Ux, Initial residual = 0.00058243907, Final residual = 2.4815989e-05, No Iterations 3
smoothSolver:  Solving for Uy, Initial residual = 0.0012682741, Final residual = 4.9912948e-05, No Iterations 3
smoothSolver:  Solving for Uz, Initial residual = 0.0023740073, Final residual = 0.00010615053, No Iterations 3
GAMG:  Solving for p, Initial residual = 0.00081340337, Final residual = 7.5720559e-06, No Iterations 3
time step continuity errors : sum local = 1.0095814e-06, global = 4.1045911e-07, cumulative = -8.4517448e-05
smoothSolver:  Solving for epsilon, Initial residual = 0.00015362033, Final residual = 1.1352755e-05, No Iterations 2
smoothSolver:  Solving for k, Initial residual = 0.0010556933, Final residual = 4.2921422e-05, No Iterations 3
ExecutionTime = 24.62 s  ClockTime = 25 s

Time = 73

smoothSolver:  Solving for Ux, Initial residual = 0.00055721015, Final residual = 2.3854361e-05, No Iterations 3
smoothSolver:  Solving for Uy, Initial residual = 0.0012058743, Final residual = 4.7633259e-05, No Iterations 3
smoothSolver:  Solving for Uz, Initial residual = 0.002251728, Final residual = 0.00010203612, No Iterations 3
GAMG:  Solving for p, Initial residual = 0.00075641045, Final residual = 6.4397817e-06, No Iterations 3
time step continuity errors : sum local = 8.5658706e-07, global = 3.3966997e-07, cumulative = -8.4177778e-05
smoothSolver:  Solving for epsilon, Initial residual = 0.00014307952, Final residual = 1.0520856e-05, No Iterations 2
smoothSolver:  Solving for k, Initial residual = 0.00097747788, Final residual = 3.9633949e-05, No Iterations 3
ExecutionTime = 24.94 s  ClockTime = 25 s

Time = 74

smoothSolver:  Solving for Ux, Initial residual = 0.00053307102, Final residual = 2.2937102e-05, No Iterations 3
smoothSolver:  Solving for Uy, Initial residual = 0.0011462023, Final residual = 4.5471018e-05, No Iterations 3
smoothSolver:  Solving for Uz, Initial residual = 0.0021375607, Final residual = 9.8157481e-05, No Iterations 3
GAMG:  Solving for p, Initial residual = 0.00070046642, Final residual = 5.1184184e-06, No Iterations 3
time step continuity errors : sum local = 6.7940127e-07, global = 2.8202662e-07, cumulative = -8.3895751e-05
smoothSolver:  Solving for epsilon, Initial residual = 0.00013330669, Final residual = 9.7523541e-06, No Iterations 2
smoothSolver:  Solving for k, Initial residual = 0.0009044485, Final residual = 3.6568884e-05, No Iterations 3
ExecutionTime = 25.26 s  ClockTime = 25 s

Time = 75

smoothSolver:  Solving for Ux, Initial residual = 0.0005105785, Final residual = 2.2052078e-05, No Iterations 3
smoothSolver:  Solving for Uy, Initial residual = 0.0010896147, Final residual = 4.3420607e-05, No Iterations 3
smoothSolver:  Solving for Uz, Initial residual = 0.0020318966, Final residual = 9.4405546e-05, No Iterations 3
GAMG:  Solving for p, Initial residual = 0.00064654734, Final residual = 4.4315641e-06, No Iterations 3
time step continuity errors : sum local = 5.8714881e-07, global = 2.2091711e-07, cumulative = -8.3674834e-05
smoothSolver:  Solving for epsilon, Initial residual = 0.00012424927, Final residual = 9.0448458e-06, No Iterations 2
smoothSolver:  Solving for k, Initial residual = 0.00083653381, Final residual = 3.3721052e-05, No Iterations 3
ExecutionTime = 25.58 s  ClockTime = 26 s

Time = 76

smoothSolver:  Solving for Ux, Initial residual = 0.00048888396, Final residual = 2.1166458e-05, No Iterations 3
smoothSolver:  Solving for Uy, Initial residual = 0.0010371661, Final residual = 4.1524928e-05, No Iterations 3
smoothSolver:  Solving for Uz, Initial residual = 0.0019354145, Final residual = 9.0769906e-05, No Iterations 3
GAMG:  Solving for p, Initial residual = 0.00059858465, Final residual = 4.2688482e-06, No Iterations 3
time step continuity errors : sum local = 5.6463839e-07, global = 1.8817897e-07, cumulative = -8.3486655e-05
smoothSolver:  Solving for epsilon, Initial residual = 0.00011581417, Final residual = 8.3926366e-06, No Iterations 2
smoothSolver:  Solving for k, Initial residual = 0.00077355887, Final residual = 3.1085801e-05, No Iterations 3
ExecutionTime = 25.9 s  ClockTime = 26 s

Time = 77

smoothSolver:  Solving for Ux, Initial residual = 0.00046777699, Final residual = 2.0277441e-05, No Iterations 3
smoothSolver:  Solving for Uy, Initial residual = 0.0009892217, Final residual = 3.9789666e-05, No Iterations 3
smoothSolver:  Solving for Uz, Initial residual = 0.0018477123, Final residual = 8.7245051e-05, No Iterations 3
GAMG:  Solving for p, Initial residual = 0.00055752263, Final residual = 3.7551995e-06, No Iterations 3
time step continuity errors : sum local = 4.9591042e-07, global = 1.7162415e-07, cumulative = -8.3315031e-05
smoothSolver:  Solving for epsilon, Initial residual = 0.00010796448, Final residual = 7.7898946e-06, No Iterations 2
smoothSolver:  Solving for k, Initial residual = 0.00071532426, Final residual = 2.8657295e-05, No Iterations 3
ExecutionTime = 26.23 s  ClockTime = 26 s

Time = 78

smoothSolver:  Solving for Ux, Initial residual = 0.00044759926, Final residual = 1.9404335e-05, No Iterations 3
smoothSolver:  Solving for Uy, Initial residual = 0.00094494651, Final residual = 3.8168965e-05, No Iterations 3
smoothSolver:  Solving for Uz, Initial residual = 0.0017662365, Final residual = 8.3718093e-05, No Iterations 3
GAMG:  Solving for p, Initial residual = 0.0005210581, Final residual = 3.3734188e-06, No Iterations 3
time step continuity errors : sum local = 4.4483376e-07, global = 1.9554194e-07, cumulative = -8.3119489e-05
smoothSolver:  Solving for epsilon, Initial residual = 0.00010064224, Final residual = 7.2316902e-06, No Iterations 2
smoothSolver:  Solving for k, Initial residual = 0.00066165583, Final residual = 2.6423002e-05, No Iterations 3
ExecutionTime = 26.58 s  ClockTime = 27 s

Time = 79

smoothSolver:  Solving for Ux, Initial residual = 0.00042775241, Final residual = 1.8551893e-05, No Iterations 3
smoothSolver:  Solving for Uy, Initial residual = 0.00090303971, Final residual = 3.6632358e-05, No Iterations 3
smoothSolver:  Solving for Uz, Initial residual = 0.0016869355, Final residual = 8.0089223e-05, No Iterations 3
GAMG:  Solving for p, Initial residual = 0.00048647659, Final residual = 3.747522e-06, No Iterations 3
time step continuity errors : sum local = 4.935138e-07, global = 4.1994323e-09, cumulative = -8.311529e-05
smoothSolver:  Solving for epsilon, Initial residual = 9.3807958e-05, Final residual = 6.7137444e-06, No Iterations 2
smoothSolver:  Solving for k, Initial residual = 0.00061224375, Final residual = 2.4374019e-05, No Iterations 3
ExecutionTime = 26.91 s  ClockTime = 27 s

Time = 80

smoothSolver:  Solving for Ux, Initial residual = 0.00040839811, Final residual = 1.7717739e-05, No Iterations 3
smoothSolver:  Solving for Uy, Initial residual = 0.00086316203, Final residual = 3.5181248e-05, No Iterations 3
smoothSolver:  Solving for Uz, Initial residual = 0.0016091516, Final residual = 7.6293559e-05, No Iterations 3
GAMG:  Solving for p, Initial residual = 0.00045200302, Final residual = 3.1513391e-06, No Iterations 3
time step continuity errors : sum local = 4.1452654e-07, global = -3.1750631e-08, cumulative = -8.314704e-05
smoothSolver:  Solving for epsilon, Initial residual = 8.7426247e-05, Final residual = 6.2323418e-06, No Iterations 2
smoothSolver:  Solving for k, Initial residual = 0.00056678019, Final residual = 2.2497458e-05, No Iterations 3
ExecutionTime = 27.26 s  ClockTime = 27 s

Time = 81

smoothSolver:  Solving for Ux, Initial residual = 0.00039014625, Final residual = 1.6903148e-05, No Iterations 3
smoothSolver:  Solving for Uy, Initial residual = 0.00082495597, Final residual = 3.3822957e-05, No Iterations 3
smoothSolver:  Solving for Uz, Initial residual = 0.0015323476, Final residual = 7.2354009e-05, No Iterations 3
GAMG:  Solving for p, Initial residual = 0.00041867708, Final residual = 3.1772084e-06, No Iterations 3
time step continuity errors : sum local = 4.175436e-07, global = -6.7405114e-08, cumulative = -8.3214446e-05
smoothSolver:  Solving for epsilon, Initial residual = 8.1447518e-05, Final residual = 5.7841133e-06, No Iterations 2
smoothSolver:  Solving for k, Initial residual = 0.00052507017, Final residual = 2.0779184e-05, No Iterations 3
ExecutionTime = 27.58 s  ClockTime = 28 s

Time = 82

smoothSolver:  Solving for Ux, Initial residual = 0.00037223437, Final residual = 1.6093658e-05, No Iterations 3
smoothSolver:  Solving for Uy, Initial residual = 0.00078962787, Final residual = 3.2588216e-05, No Iterations 3
smoothSolver:  Solving for Uz, Initial residual = 0.0014566146, Final residual = 6.8339458e-05, No Iterations 3
GAMG:  Solving for p, Initial residual = 0.00038796763, Final residual = 3.2413309e-06, No Iterations 3
time step continuity errors : sum local = 4.2564124e-07, global = -8.1617125e-08, cumulative = -8.3296063e-05
smoothSolver:  Solving for epsilon, Initial residual = 7.5845107e-05, Final residual = 5.3666354e-06, No Iterations 2
smoothSolver:  Solving for k, Initial residual = 0.00048680169, Final residual = 1.9209189e-05, No Iterations 3
ExecutionTime = 27.91 s  ClockTime = 28 s

Time = 83

smoothSolver:  Solving for Ux, Initial residual = 0.00035450363, Final residual = 1.5292597e-05, No Iterations 3
smoothSolver:  Solving for Uy, Initial residual = 0.00075687484, Final residual = 3.1458956e-05, No Iterations 3
smoothSolver:  Solving for Uz, Initial residual = 0.0013819099, Final residual = 6.4316543e-05, No Iterations 3
GAMG:  Solving for p, Initial residual = 0.00035942837, Final residual = 2.8805917e-06, No Iterations 3
time step continuity errors : sum local = 3.7802132e-07, global = -6.6041167e-08, cumulative = -8.3362104e-05
smoothSolver:  Solving for epsilon, Initial residual = 7.0599291e-05, Final residual = 4.9777509e-06, No Iterations 2
smoothSolver:  Solving for k, Initial residual = 0.00045169206, Final residual = 1.7774789e-05, No Iterations 3
ExecutionTime = 28.24 s  ClockTime = 28 s

Time = 84

smoothSolver:  Solving for Ux, Initial residual = 0.00033742508, Final residual = 1.4514172e-05, No Iterations 3
smoothSolver:  Solving for Uy, Initial residual = 0.00072631136, Final residual = 3.0411535e-05, No Iterations 3
smoothSolver:  Solving for Uz, Initial residual = 0.0013072429, Final residual = 6.0315792e-05, No Iterations 3
GAMG:  Solving for p, Initial residual = 0.00033399449, Final residual = 2.4485322e-06, No Iterations 3
time step continuity errors : sum local = 3.2114345e-07, global = -5.7619546e-08, cumulative = -8.3419723e-05
smoothSolver:  Solving for epsilon, Initial residual = 6.5682762e-05, Final residual = 4.6151831e-06, No Iterations 2
smoothSolver:  Solving for k, Initial residual = 0.00041948874, Final residual = 1.6464768e-05, No Iterations 3
ExecutionTime = 28.58 s  ClockTime = 29 s

Time = 85

smoothSolver:  Solving for Ux, Initial residual = 0.00032049429, Final residual = 1.3758812e-05, No Iterations 3
smoothSolver:  Solving for Uy, Initial residual = 0.00069760569, Final residual = 2.9434109e-05, No Iterations 3
smoothSolver:  Solving for Uz, Initial residual = 0.0012320944, Final residual = 5.6345792e-05, No Iterations 3
GAMG:  Solving for p, Initial residual = 0.00031100184, Final residual = 2.336797e-06, No Iterations 3
time step continuity errors : sum local = 3.0635107e-07, global = -1.1239167e-07, cumulative = -8.3532115e-05
smoothSolver:  Solving for epsilon, Initial residual = 6.1070358e-05, Final residual = 4.2766009e-06, No Iterations 2
smoothSolver:  Solving for k, Initial residual = 0.000389862, Final residual = 1.5267457e-05, No Iterations 3
ExecutionTime = 28.92 s  ClockTime = 29 s

Time = 86

smoothSolver:  Solving for Ux, Initial residual = 0.00030388221, Final residual = 1.3024191e-05, No Iterations 3
smoothSolver:  Solving for Uy, Initial residual = 0.00067093193, Final residual = 2.8542688e-05, No Iterations 3
smoothSolver:  Solving for Uz, Initial residual = 0.0011570837, Final residual = 5.2431575e-05, No Iterations 3
GAMG:  Solving for p, Initial residual = 0.00029038382, Final residual = 2.6022107e-06, No Iterations 3
time step continuity errors : sum local = 3.4103316e-07, global = -9.8229947e-08, cumulative = -8.3630345e-05
smoothSolver:  Solving for epsilon, Initial residual = 5.6757554e-05, Final residual = 3.9610292e-06, No Iterations 2
smoothSolver:  Solving for k, Initial residual = 0.00036256088, Final residual = 1.4172119e-05, No Iterations 3
ExecutionTime = 29.25 s  ClockTime = 29 s

Time = 87

smoothSolver:  Solving for Ux, Initial residual = 0.00028798393, Final residual = 1.2310193e-05, No Iterations 3
smoothSolver:  Solving for Uy, Initial residual = 0.00064648599, Final residual = 2.7749223e-05, No Iterations 3
smoothSolver:  Solving for Uz, Initial residual = 0.0010833661, Final residual = 4.8623771e-05, No Iterations 3
GAMG:  Solving for p, Initial residual = 0.00027263139, Final residual = 2.5156819e-06, No Iterations 3
time step continuity errors : sum local = 3.2963683e-07, global = -3.7957553e-08, cumulative = -8.3668303e-05
smoothSolver:  Solving for epsilon, Initial residual = 5.2724341e-05, Final residual = 3.6672345e-06, No Iterations 2
smoothSolver:  Solving for k, Initial residual = 0.00033738533, Final residual = 1.3169879e-05, No Iterations 3
ExecutionTime = 29.58 s  ClockTime = 30 s

Time = 88

smoothSolver:  Solving for Ux, Initial residual = 0.000272512, Final residual = 1.1618016e-05, No Iterations 3
smoothSolver:  Solving for Uy, Initial residual = 0.00062459123, Final residual = 2.7038574e-05, No Iterations 3
smoothSolver:  Solving for Uz, Initial residual = 0.0010118556, Final residual = 4.4980357e-05, No Iterations 3
GAMG:  Solving for p, Initial residual = 0.0002567113, Final residual = 2.4300126e-06, No Iterations 3
time step continuity errors : sum local = 3.1839116e-07, global = -4.7163009e-08, cumulative = -8.3715466e-05
smoothSolver:  Solving for epsilon, Initial residual = 4.8953992e-05, Final residual = 3.3942603e-06, No Iterations 2
smoothSolver:  Solving for k, Initial residual = 0.00031414982, Final residual = 1.2250786e-05, No Iterations 3
ExecutionTime = 29.91 s  ClockTime = 30 s

Time = 89

smoothSolver:  Solving for Ux, Initial residual = 0.00025743244, Final residual = 1.0947266e-05, No Iterations 3
smoothSolver:  Solving for Uy, Initial residual = 0.00060492388, Final residual = 2.6384997e-05, No Iterations 3
smoothSolver:  Solving for Uz, Initial residual = 0.0009427396, Final residual = 4.1541411e-05, No Iterations 3
GAMG:  Solving for p, Initial residual = 0.00024180099, Final residual = 2.320417e-06, No Iterations 3
time step continuity errors : sum local = 3.0403207e-07, global = -2.6167602e-08, cumulative = -8.3741633e-05
smoothSolver:  Solving for epsilon, Initial residual = 4.5434789e-05, Final residual = 3.141039e-06, No Iterations 2
smoothSolver:  Solving for k, Initial residual = 0.00029268083, Final residual = 1.1407146e-05, No Iterations 3
ExecutionTime = 30.24 s  ClockTime = 30 s

Time = 90

smoothSolver:  Solving for Ux, Initial residual = 0.00024274488, Final residual = 1.0300751e-05, No Iterations 3
smoothSolver:  Solving for Uy, Initial residual = 0.0005872567, Final residual = 2.5759284e-05, No Iterations 3
smoothSolver:  Solving for Uz, Initial residual = 0.00087595106, Final residual = 3.8313817e-05, No Iterations 3
GAMG:  Solving for p, Initial residual = 0.00022711058, Final residual = 5.5735038e-07, No Iterations 4
time step continuity errors : sum local = 7.3031761e-08, global = -1.053282e-08, cumulative = -8.3752166e-05
smoothSolver:  Solving for epsilon, Initial residual = 4.2161699e-05, Final residual = 2.906982e-06, No Iterations 2
smoothSolver:  Solving for k, Initial residual = 0.00027280544, Final residual = 1.0632198e-05, No Iterations 3
ExecutionTime = 30.58 s  ClockTime = 31 s

Time = 91

smoothSolver:  Solving for Ux, Initial residual = 0.00022849761, Final residual = 9.6805205e-06, No Iterations 3
smoothSolver:  Solving for Uy, Initial residual = 0.00057133996, Final residual = 2.51391e-05, No Iterations 3
smoothSolver:  Solving for Uz, Initial residual = 0.00081162457, Final residual = 3.5296994e-05, No Iterations 3
GAMG:  Solving for p, Initial residual = 0.0002126774, Final residual = 8.4922614e-07, No Iterations 4
time step continuity errors : sum local = 1.112941e-07, global = -4.0069831e-08, cumulative = -8.3792236e-05
smoothSolver:  Solving for epsilon, Initial residual = 3.9122172e-05, Final residual = 2.6915689e-06, No Iterations 2
smoothSolver:  Solving for k, Initial residual = 0.00025438115, Final residual = 9.9166036e-06, No Iterations 3
ExecutionTime = 30.93 s  ClockTime = 31 s

Time = 92

smoothSolver:  Solving for Ux, Initial residual = 0.00021475385, Final residual = 9.0854047e-06, No Iterations 3
smoothSolver:  Solving for Uy, Initial residual = 0.00055643246, Final residual = 2.4524393e-05, No Iterations 3
smoothSolver:  Solving for Uz, Initial residual = 0.00075005339, Final residual = 3.2490697e-05, No Iterations 3
GAMG:  Solving for p, Initial residual = 0.00019891323, Final residual = 9.5418444e-07, No Iterations 4
time step continuity errors : sum local = 1.2507739e-07, global = -7.4474491e-08, cumulative = -8.386671e-05
smoothSolver:  Solving for epsilon, Initial residual = 3.6306587e-05, Final residual = 2.4936005e-06, No Iterations 2
smoothSolver:  Solving for k, Initial residual = 0.00023734069, Final residual = 9.2539304e-06, No Iterations 3
ExecutionTime = 31.28 s  ClockTime = 31 s

Time = 93

smoothSolver:  Solving for Ux, Initial residual = 0.00020159156, Final residual = 8.5152599e-06, No Iterations 3
smoothSolver:  Solving for Uy, Initial residual = 0.00054240636, Final residual = 2.3913134e-05, No Iterations 3
smoothSolver:  Solving for Uz, Initial residual = 0.00069240604, Final residual = 2.9919146e-05, No Iterations 3
GAMG:  Solving for p, Initial residual = 0.00018651202, Final residual = 8.1092726e-07, No Iterations 4
time step continuity errors : sum local = 1.0633006e-07, global = -7.284043e-08, cumulative = -8.3939551e-05
smoothSolver:  Solving for epsilon, Initial residual = 3.3704674e-05, Final residual = 2.3119785e-06, No Iterations 2
smoothSolver:  Solving for k, Initial residual = 0.0002215817, Final residual = 8.6379674e-06, No Iterations 3
ExecutionTime = 31.62 s  ClockTime = 32 s

Time = 94

smoothSolver:  Solving for Ux, Initial residual = 0.00018895225, Final residual = 7.9694267e-06, No Iterations 3
smoothSolver:  Solving for Uy, Initial residual = 0.00052904598, Final residual = 2.3298701e-05, No Iterations 3
[...]
smoothSolver:  Solving for Uz, Initial residual = 0.00050188337, Final residual = 2.1858022e-05, No Iterations 3
GAMG:  Solving for p, Initial residual = 0.00014362806, Final residual = 6.0523932e-07, No Iterations 4
time step continuity errors : sum local = 7.9484973e-08, global = 2.8676505e-08, cumulative = -8.4027265e-05
smoothSolver:  Solving for epsilon, Initial residual = 2.5171884e-05, Final residual = 1.7141434e-06, No Iterations 2
smoothSolver:  Solving for k, Initial residual = 0.00016878466, Final residual = 6.5389536e-06, No Iterations 3
ExecutionTime = 32.96 s  ClockTime = 33 s

Time = 98

smoothSolver:  Solving for Ux, Initial residual = 0.00014375527, Final residual = 6.048551e-06, No Iterations 3
smoothSolver:  Solving for Uy, Initial residual = 0.00047231571, Final residual = 2.0587025e-05, No Iterations 3
smoothSolver:  Solving for Uz, Initial residual = 0.00046330521, Final residual = 2.0295508e-05, No Iterations 3
GAMG:  Solving for p, Initial residual = 0.00013404546, Final residual = 1.0974988e-06, No Iterations 4
time step continuity errors : sum local = 1.4419697e-07, global = 7.230875e-08, cumulative = -8.3954956e-05
smoothSolver:  Solving for epsilon, Initial residual = 2.3422606e-05, Final residual = 1.5898569e-06, No Iterations 2
smoothSolver:  Solving for k, Initial residual = 0.0001576031, Final residual = 6.0840759e-06, No Iterations 3
ExecutionTime = 33.31 s  ClockTime = 33 s

Time = 99

smoothSolver:  Solving for Ux, Initial residual = 0.00013391324, Final residual = 5.6296171e-06, No Iterations 3
smoothSolver:  Solving for Uy, Initial residual = 0.00045659206, Final residual = 1.9839759e-05, No Iterations 3
smoothSolver:  Solving for Uz, Initial residual = 0.00042824947, Final residual = 1.8888768e-05, No Iterations 3
GAMG:  Solving for p, Initial residual = 0.00012553462, Final residual = 1.2173736e-06, No Iterations 4
time step continuity errors : sum local = 1.6002115e-07, global = 8.2882064e-08, cumulative = -8.3872074e-05
smoothSolver:  Solving for epsilon, Initial residual = 2.1794862e-05, Final residual = 1.4737481e-06, No Iterations 2
smoothSolver:  Solving for k, Initial residual = 0.00014705574, Final residual = 5.6521256e-06, No Iterations 3
ExecutionTime = 33.63 s  ClockTime = 34 s

Time = 100

smoothSolver:  Solving for Ux, Initial residual = 0.00012468165, Final residual = 5.232579e-06, No Iterations 3
smoothSolver:  Solving for Uy, Initial residual = 0.00044047081, Final residual = 1.9061186e-05, No Iterations 3
smoothSolver:  Solving for Uz, Initial residual = 0.00039651029, Final residual = 1.7618525e-05, No Iterations 3
GAMG:  Solving for p, Initial residual = 0.00011776038, Final residual = 1.027857e-06, No Iterations 4
time step continuity errors : sum local = 1.3517345e-07, global = 6.9107678e-08, cumulative = -8.3802966e-05
smoothSolver:  Solving for epsilon, Initial residual = 2.02741e-05, Final residual = 1.3652996e-06, No Iterations 2
smoothSolver:  Solving for k, Initial residual = 0.00013707711, Final residual = 5.2418131e-06, No Iterations 3
ExecutionTime = 34.37 s  ClockTime = 34 s

surfaceFieldValue pressureDrop write:
    areaAverage(inlet) of p = 0.60156725

Time = 101

smoothSolver:  Solving for Ux, Initial residual = 0.00011596963, Final residual = 4.8566919e-06, No Iterations 3
smoothSolver:  Solving for Uy, Initial residual = 0.0004237625, Final residual = 1.8244351e-05, No Iterations 3
smoothSolver:  Solving for Uz, Initial residual = 0.00036759588, Final residual = 1.6461307e-05, No Iterations 3
GAMG:  Solving for p, Initial residual = 0.00011022963, Final residual = 1.0399295e-06, No Iterations 3
time step continuity errors : sum local = 1.3682498e-07, global = -7.9197345e-08, cumulative = -8.3882164e-05
smoothSolver:  Solving for epsilon, Initial residual = 1.8852764e-05, Final residual = 1.2640463e-06, No Iterations 2
smoothSolver:  Solving for k, Initial residual = 0.00012761755, Final residual = 4.8528235e-06, No Iterations 3
ExecutionTime = 34.7 s  ClockTime = 35 s

Time = 102

smoothSolver:  Solving for Ux, Initial residual = 0.00010773883, Final residual = 4.5020533e-06, No Iterations 3
smoothSolver:  Solving for Uy, Initial residual = 0.00040629657, Final residual = 1.7388044e-05, No Iterations 3
smoothSolver:  Solving for Uz, Initial residual = 0.00034115078, Final residual = 1.5393086e-05, No Iterations 3
GAMG:  Solving for p, Initial residual = 0.00010310743, Final residual = 3.5515223e-07, No Iterations 4
time step continuity errors : sum local = 4.6748403e-08, global = -2.4579242e-08, cumulative = -8.3906743e-05
smoothSolver:  Solving for epsilon, Initial residual = 1.7524463e-05, Final residual = 1.1696421e-06, No Iterations 2
smoothSolver:  Solving for k, Initial residual = 0.0001186624, Final residual = 4.4851415e-06, No Iterations 3
ExecutionTime = 35.04 s  ClockTime = 35 s

Time = 103

smoothSolver:  Solving for Ux, Initial residual = 0.00010007393, Final residual = 4.1646302e-06, No Iterations 3
smoothSolver:  Solving for Uy, Initial residual = 0.00038784477, Final residual = 1.6496778e-05, No Iterations 3
smoothSolver:  Solving for Uz, Initial residual = 0.00031699436, Final residual = 1.4398832e-05, No Iterations 3
GAMG:  Solving for p, Initial residual = 9.6379073e-05, Final residual = 4.2453414e-07, No Iterations 4
time step continuity errors : sum local = 5.590677e-08, global = -3.861816e-08, cumulative = -8.3945361e-05
smoothSolver:  Solving for epsilon, Initial residual = 1.6284126e-05, Final residual = 1.0819395e-06, No Iterations 2
smoothSolver:  Solving for k, Initial residual = 0.00011020016, Final residual = 4.1381621e-06, No Iterations 3
ExecutionTime = 35.38 s  ClockTime = 35 s

Time = 104

smoothSolver:  Solving for Ux, Initial residual = 9.2809664e-05, Final residual = 3.8445334e-06, No Iterations 3
smoothSolver:  Solving for Uy, Initial residual = 0.0003685618, Final residual = 1.5582741e-05, No Iterations 3
smoothSolver:  Solving for Uz, Initial residual = 0.0002948599, Final residual = 1.3461429e-05, No Iterations 3
GAMG:  Solving for p, Initial residual = 9.0469515e-05, Final residual = 4.1315426e-07, No Iterations 4
time step continuity errors : sum local = 5.4432097e-08, global = -3.7255098e-08, cumulative = -8.3982616e-05
smoothSolver:  Solving for epsilon, Initial residual = 1.512307e-05, Final residual = 1.0003128e-06, No Iterations 2
smoothSolver:  Solving for k, Initial residual = 0.00010220342, Final residual = 3.8114389e-06, No Iterations 3
ExecutionTime = 35.73 s  ClockTime = 36 s

Time = 105

smoothSolver:  Solving for Ux, Initial residual = 8.5902884e-05, Final residual = 3.5406797e-06, No Iterations 3
smoothSolver:  Solving for Uy, Initial residual = 0.00034879836, Final residual = 1.4658048e-05, No Iterations 3
smoothSolver:  Solving for Uz, Initial residual = 0.00027458758, Final residual = 1.2574444e-05, No Iterations 3
GAMG:  Solving for p, Initial residual = 8.497702e-05, Final residual = 3.9456943e-07, No Iterations 4
time step continuity errors : sum local = 5.2005215e-08, global = -3.4006325e-08, cumulative = -8.4016623e-05
smoothSolver:  Solving for epsilon, Initial residual = 1.4037943e-05, Final residual = 9.2428042e-07, No Iterations 2
smoothSolver:  Solving for k, Initial residual = 9.4644629e-05, Final residual = 3.5045351e-06, No Iterations 3
ExecutionTime = 36.05 s  ClockTime = 36 s

Time = 106

smoothSolver:  Solving for Ux, Initial residual = 7.9374437e-05, Final residual = 3.2526704e-06, No Iterations 3
smoothSolver:  Solving for Uy, Initial residual = 0.00032875552, Final residual = 1.3730089e-05, No Iterations 3
smoothSolver:  Solving for Uz, Initial residual = 0.0002558966, Final residual = 1.1730888e-05, No Iterations 3
GAMG:  Solving for p, Initial residual = 7.9575784e-05, Final residual = 4.0243855e-07, No Iterations 4
time step continuity errors : sum local = 5.3063198e-08, global = -3.6377476e-08, cumulative = -8.4053e-05
smoothSolver:  Solving for epsilon, Initial residual = 1.3025041e-05, Final residual = 8.5331916e-07, No Iterations 2
smoothSolver:  Solving for k, Initial residual = 8.7504156e-05, Final residual = 3.2162858e-06, No Iterations 3
ExecutionTime = 36.4 s  ClockTime = 36 s

Time = 107

smoothSolver:  Solving for Ux, Initial residual = 7.3171333e-05, Final residual = 2.9798172e-06, No Iterations 3
smoothSolver:  Solving for Uy, Initial residual = 0.00030852901, Final residual = 1.2804571e-05, No Iterations 3
smoothSolver:  Solving for Uz, Initial residual = 0.00023846872, Final residual = 1.0921533e-05, No Iterations 3
GAMG:  Solving for p, Initial residual = 7.3979527e-05, Final residual = 4.3807158e-07, No Iterations 4
time step continuity errors : sum local = 5.7782956e-08, global = -3.8371524e-08, cumulative = -8.4091372e-05
smoothSolver:  Solving for epsilon, Initial residual = 1.2076655e-05, Final residual = 7.8685258e-07, No Iterations 2
smoothSolver:  Solving for k, Initial residual = 8.0768814e-05, Final residual = 2.946122e-06, No Iterations 3
ExecutionTime = 36.74 s  ClockTime = 37 s

Time = 108

smoothSolver:  Solving for Ux, Initial residual = 6.7285616e-05, Final residual = 2.7217102e-06, No Iterations 3
smoothSolver:  Solving for Uy, Initial residual = 0.00028819105, Final residual = 1.1886371e-05, No Iterations 3
smoothSolver:  Solving for Uz, Initial residual = 0.00022213212, Final residual = 1.0137666e-05, No Iterations 3
GAMG:  Solving for p, Initial residual = 6.8237745e-05, Final residual = 4.8231795e-07, No Iterations 4
time step continuity errors : sum local = 6.3641379e-08, global = -3.6518812e-08, cumulative = -8.412789e-05
smoothSolver:  Solving for epsilon, Initial residual = 1.1182904e-05, Final residual = 7.243565e-07, No Iterations 2
smoothSolver:  Solving for k, Initial residual = 7.4418353e-05, Final residual = 2.6941277e-06, No Iterations 3
ExecutionTime = 37.08 s  ClockTime = 37 s

Time = 109

smoothSolver:  Solving for Ux, Initial residual = 6.1708977e-05, Final residual = 2.4782371e-06, No Iterations 3
smoothSolver:  Solving for Uy, Initial residual = 0.00026788416, Final residual = 1.0983573e-05, No Iterations 3
smoothSolver:  Solving for Uz, Initial residual = 0.00020675709, Final residual = 9.3734948e-06, No Iterations 3
GAMG:  Solving for p, Initial residual = 6.2858405e-05, Final residual = 4.7727046e-07, No Iterations 4
time step continuity errors : sum local = 6.2996033e-08, global = -3.2251639e-08, cumulative = -8.4160142e-05
smoothSolver:  Solving for epsilon, Initial residual = 1.0335218e-05, Final residual = 6.656178e-07, No Iterations 2
smoothSolver:  Solving for k, Initial residual = 6.8432655e-05, Final residual = 2.4600834e-06, No Iterations 3
ExecutionTime = 37.43 s  ClockTime = 37 s

Time = 110

smoothSolver:  Solving for Ux, Initial residual = 5.6442443e-05, Final residual = 2.24923e-06, No Iterations 3
smoothSolver:  Solving for Uy, Initial residual = 0.00024787739, Final residual = 1.0105353e-05, No Iterations 3
smoothSolver:  Solving for Uz, Initial residual = 0.00019224814, Final residual = 8.6256945e-06, No Iterations 3
GAMG:  Solving for p, Initial residual = 5.8068006e-05, Final residual = 4.2660236e-07, No Iterations 4
time step continuity errors : sum local = 5.6325451e-08, global = -2.5721973e-08, cumulative = -8.4185864e-05
smoothSolver:  Solving for epsilon, Initial residual = 9.5302385e-06, Final residual = 6.1048263e-07, No Iterations 2
smoothSolver:  Solving for k, Initial residual = 6.2811245e-05, Final residual = 2.2432801e-06, No Iterations 3
ExecutionTime = 37.76 s  ClockTime = 38 s

Time = 111

smoothSolver:  Solving for Ux, Initial residual = 5.1466444e-05, Final residual = 2.0345257e-06, No Iterations 3
smoothSolver:  Solving for Uy, Initial residual = 0.00022839606, Final residual = 9.2589498e-06, No Iterations 3
smoothSolver:  Solving for Uz, Initial residual = 0.00017840681, Final residual = 7.8948269e-06, No Iterations 3
GAMG:  Solving for p, Initial residual = 5.3818214e-05, Final residual = 3.6505824e-07, No Iterations 4
time step continuity errors : sum local = 4.8213155e-08, global = -1.9689346e-08, cumulative = -8.4205553e-05
smoothSolver:  Solving for epsilon, Initial residual = 8.7665743e-06, Final residual = 5.587074e-07, No Iterations 2
smoothSolver:  Solving for k, Initial residual = 5.7552308e-05, Final residual = 2.0427891e-06, No Iterations 3
ExecutionTime = 38.09 s  ClockTime = 38 s

Time = 112

smoothSolver:  Solving for Ux, Initial residual = 4.677509e-05, Final residual = 1.8340507e-06, No Iterations 3
smoothSolver:  Solving for Uy, Initial residual = 0.00020955644, Final residual = 8.4483277e-06, No Iterations 3
smoothSolver:  Solving for Uz, Initial residual = 0.00016505642, Final residual = 7.1875623e-06, No Iterations 3
GAMG:  Solving for p, Initial residual = 4.9798857e-05, Final residual = 3.2003235e-07, No Iterations 4
time step continuity errors : sum local = 4.2277375e-08, global = -1.7010117e-08, cumulative = -8.4222563e-05
smoothSolver:  Solving for epsilon, Initial residual = 8.0426528e-06, Final residual = 5.1016882e-07, No Iterations 2
smoothSolver:  Solving for k, Initial residual = 5.2642433e-05, Final residual = 1.857581e-06, No Iterations 3
ExecutionTime = 38.43 s  ClockTime = 38 s

Time = 113

smoothSolver:  Solving for Ux, Initial residual = 4.2369513e-05, Final residual = 1.647664e-06, No Iterations 3
smoothSolver:  Solving for Uy, Initial residual = 0.00019142455, Final residual = 7.6755676e-06, No Iterations 3
smoothSolver:  Solving for Uz, Initial residual = 0.00015218857, Final residual = 6.5118905e-06, No Iterations 3
GAMG:  Solving for p, Initial residual = 4.5787941e-05, Final residual = 2.9207514e-07, No Iterations 4
time step continuity errors : sum local = 3.859301e-08, global = -1.618011e-08, cumulative = -8.4238744e-05
smoothSolver:  Solving for epsilon, Initial residual = 7.3577812e-06, Final residual = 4.647443e-07, No Iterations 2
smoothSolver:  Solving for k, Initial residual = 4.8063566e-05, Final residual = 1.686583e-06, No Iterations 3
ExecutionTime = 38.76 s  ClockTime = 39 s

Time = 114

smoothSolver:  Solving for Ux, Initial residual = 3.8253546e-05, Final residual = 1.4751334e-06, No Iterations 3
smoothSolver:  Solving for Uy, Initial residual = 0.00017405418, Final residual = 6.9427347e-06, No Iterations 3
smoothSolver:  Solving for Uz, Initial residual = 0.00013981024, Final residual = 5.8741008e-06, No Iterations 3
GAMG:  Solving for p, Initial residual = 4.1940666e-05, Final residual = 2.7202389e-07, No Iterations 4
time step continuity errors : sum local = 3.5951038e-08, global = -1.5485756e-08, cumulative = -8.4254229e-05
smoothSolver:  Solving for epsilon, Initial residual = 6.7121672e-06, Final residual = 4.2232001e-07, No Iterations 2
smoothSolver:  Solving for k, Initial residual = 4.3795458e-05, Final residual = 1.5287042e-06, No Iterations 3
ExecutionTime = 39.1 s  ClockTime = 39 s

Time = 115

smoothSolver:  Solving for Ux, Initial residual = 3.4427831e-05, Final residual = 1.3161114e-06, No Iterations 3
smoothSolver:  Solving for Uy, Initial residual = 0.00015756165, Final residual = 6.2533926e-06, No Iterations 3
smoothSolver:  Solving for Uz, Initial residual = 0.00012798758, Final residual = 5.2777832e-06, No Iterations 3
GAMG:  Solving for p, Initial residual = 3.8484973e-05, Final residual = 2.4889179e-07, No Iterations 4
time step continuity errors : sum local = 3.2900084e-08, global = -1.4302349e-08, cumulative = -8.4268532e-05
smoothSolver:  Solving for epsilon, Initial residual = 6.1052872e-06, Final residual = 3.827884e-07, No Iterations 2
smoothSolver:  Solving for k, Initial residual = 3.9819473e-05, Final residual = 1.3831684e-06, No Iterations 3
ExecutionTime = 39.47 s  ClockTime = 40 s

Time = 116

smoothSolver:  Solving for Ux, Initial residual = 3.0884277e-05, Final residual = 1.1701947e-06, No Iterations 3
smoothSolver:  Solving for Uy, Initial residual = 0.00014207752, Final residual = 5.6110425e-06, No Iterations 3
smoothSolver:  Solving for Uz, Initial residual = 0.00011671155, Final residual = 4.7242829e-06, No Iterations 3
GAMG:  Solving for p, Initial residual = 3.5540444e-05, Final residual = 2.165864e-07, No Iterations 4
time step continuity errors : sum local = 2.8634651e-08, global = -1.2645975e-08, cumulative = -8.4281178e-05
smoothSolver:  Solving for epsilon, Initial residual = 5.5367426e-06, Final residual = 3.4604843e-07, No Iterations 2
smoothSolver:  Solving for k, Initial residual = 3.6120292e-05, Final residual = 1.2490635e-06, No Iterations 3
ExecutionTime = 39.81 s  ClockTime = 40 s

Time = 117

smoothSolver:  Solving for Ux, Initial residual = 2.761468e-05, Final residual = 1.0370231e-06, No Iterations 3
smoothSolver:  Solving for Uy, Initial residual = 0.00012766779, Final residual = 5.0171656e-06, No Iterations 3
smoothSolver:  Solving for Uz, Initial residual = 0.00010598939, Final residual = 4.2129532e-06, No Iterations 3
GAMG:  Solving for p, Initial residual = 3.3104003e-05, Final residual = 1.7876042e-07, No Iterations 4
time step continuity errors : sum local = 2.3637334e-08, global = -1.1003249e-08, cumulative = -8.4292181e-05
smoothSolver:  Solving for epsilon, Initial residual = 5.0062426e-06, Final residual = 3.1199787e-07, No Iterations 2
smoothSolver:  Solving for k, Initial residual = 3.2685257e-05, Final residual = 1.1257639e-06, No Iterations 3
ExecutionTime = 40.14 s  ClockTime = 40 s

Time = 118

smoothSolver:  Solving for Ux, Initial residual = 2.4612453e-05, Final residual = 9.1614918e-07, No Iterations 3
smoothSolver:  Solving for Uy, Initial residual = 0.00011432235, Final residual = 4.4709331e-06, No Iterations 3
smoothSolver:  Solving for Uz, Initial residual = 9.5806482e-05, Final residual = 3.7429554e-06, No Iterations 3
GAMG:  Solving for p, Initial residual = 3.0919222e-05, Final residual = 1.443898e-07, No Iterations 4
time step continuity errors : sum local = 1.9095117e-08, global = -9.682745e-09, cumulative = -8.4301864e-05
smoothSolver:  Solving for epsilon, Initial residual = 4.5130785e-06, Final residual = 2.8050387e-07, No Iterations 2
smoothSolver:  Solving for k, Initial residual = 2.9503551e-05, Final residual = 1.0125627e-06, No Iterations 3
ExecutionTime = 40.49 s  ClockTime = 41 s

Time = 119

smoothSolver:  Solving for Ux, Initial residual = 2.1864874e-05, Final residual = 8.0685113e-07, No Iterations 3
smoothSolver:  Solving for Uy, Initial residual = 0.00010198529, Final residual = 3.9699648e-06, No Iterations 3
smoothSolver:  Solving for Uz, Initial residual = 8.6198721e-05, Final residual = 3.3133855e-06, No Iterations 3
GAMG:  Solving for p, Initial residual = 2.8806721e-05, Final residual = 1.19412e-07, No Iterations 4
time step continuity errors : sum local = 1.5793753e-08, global = -8.5019147e-09, cumulative = -8.4310365e-05
smoothSolver:  Solving for epsilon, Initial residual = 4.0560621e-06, Final residual = 2.5148621e-07, No Iterations 2
smoothSolver:  Solving for k, Initial residual = 2.6565332e-05, Final residual = 9.0882563e-07, No Iterations 3
ExecutionTime = 40.81 s  ClockTime = 41 s

Time = 120

smoothSolver:  Solving for Ux, Initial residual = 1.9363506e-05, Final residual = 7.0841236e-07, No Iterations 3
smoothSolver:  Solving for Uy, Initial residual = 9.0622893e-05, Final residual = 3.5123134e-06, No Iterations 3
smoothSolver:  Solving for Uz, Initial residual = 7.7223446e-05, Final residual = 2.9238202e-06, No Iterations 3
GAMG:  Solving for p, Initial residual = 2.6766417e-05, Final residual = 1.0267568e-07, No Iterations 4
time step continuity errors : sum local = 1.3581584e-08, global = -7.2496313e-09, cumulative = -8.4317615e-05
smoothSolver:  Solving for epsilon, Initial residual = 3.6343914e-06, Final residual = 2.2486732e-07, No Iterations 2
smoothSolver:  Solving for k, Initial residual = 2.3862455e-05, Final residual = 8.1408594e-07, No Iterations 3
ExecutionTime = 41.15 s  ClockTime = 41 s


SIMPLE solution converged in 120 iterations

End

