/*---------------------------------------------------------------------------*\
| =========                 |                                                 |
| \\      /  F ield         | OpenFOAM: The Open Source CFD Toolbox           |
|  \\    /   O peration     | Version:  2412                                  |
|   \\  /    A nd           | Website:  www.openfoam.com                      |
|    \\/     M anipulation  |                                                 |
\*---------------------------------------------------------------------------*/
Build  : _b8cf4d35-20260127 OPENFOAM=2412 patch=260127 version=2412
Arch   : "LSB;label=32;scalar=64"
Exec   : simpleFoam
Date   : Jun 17 2026
Time   : 14:19:13
Host   : LAPTOP-8OT81PN8
PID    : 2466
I/O    : uncollated
Case   : /home/saidul/of_heat_sink_fine
nProcs : 1
trapFpe: Floating point exception trapping enabled (FOAM_SIGFPE).
fileModificationChecking : Monitoring run-time modified files using timeStampMaster (fileModificationSkew 5, maxFileModificationPolls 20)
allowSystemOperations : Allowing user-supplied system call operations

// * * * * * * * * * * * * * * * * * * * * * * * * * * * * * * * * * * * * * //
Create time

Create mesh for time = 0


SIMPLE: convergence criteria
    field p	 tolerance 0.0001
    field U	 tolerance 0.0001

Reading field p

Reading field U

Using dynamicCode for patch inlet on field U at line 29 in "/home/saidul/of_heat_sink_fine/0/U/boundaryField/inlet"
Reading/calculating face flux field phi

Selecting incompressible transport model Newtonian
Selecting turbulence model type laminar
Selecting laminar stress model Stokes
No MRF models present

No finite volume options present

Starting time loop

--> FOAM Warning : 
Unknown function type fieldValueDelta

Valid function types :

96
(
AMIWeights
BilgerMixtureFraction
CourantNo
Curle
DESModelRegions
DMD
LambVector
Lambda2
MachNo
ObukhovLength
PecletNo
Q
XiReactionRate
add
age
binField
blendingFactor
cellDecomposer
columnAverage
comfort
components
continuityError
ddt
ddt2
derivedFields
div
electricPotential
energyTransport
enstrophy
exprField
externalCoupled
extractEulerianParticles
fieldAverage
fieldCoordinateSystemTransform
fieldExtents
fieldMinMax
flowType
flux
fluxSummary
grad
heatTransferCoeff
histogram
interfaceHeight
limitFields
log
mag
magSqr
mapFields
momentum
momentumError
multiFieldValue
multiphaseInterHtcModel
multiply
nearWallFields
norm
particleDistribution
patchProbes
pow
pressure
probes
processorField
proudmanAcousticPower
psiReactionThermoMoleFractions
psiReactionsSensitivityAnalysis
psiSpecieReactionRates
randomise
reactingEulerHtcModel
readFields
reference
regionSizeDistribution
resolutionIndex
rhoReactionThermoMoleFractions
rhoReactionsSensitivityAnalysis
rhoSpecieReactionRates
scalarTransport
setFlow
sets
stabilityBlendingFactor
streamFunction
streamLine
subtract
surfaceDistance
surfaceFieldValue
surfaceInterpolate
surfaces
turbulenceFields
valueAverage
volFieldValue
vorticity
wallBoundedStreamLine
wallHeatFlux
wallShearStress
writeCellCentres
writeCellVolumes
yPlus
zeroGradient
)



    From static Foam::autoPtr<Foam::functionObject> Foam::functionObject::New(const Foam::word&, const Foam::Time&, const Foam::dictionary&)
    in file db/functionObjects/functionObject/functionObject.C at line 129.
--> loading function object 'pressureDrop'

Time = 1

smoothSolver:  Solving for Ux, Initial residual = 1, Final residual = 0.060639582, No Iterations 2
smoothSolver:  Solving for Uy, Initial residual = 1, Final residual = 0.050502181, No Iterations 2
smoothSolver:  Solving for Uz, Initial residual = 0.99996529, Final residual = 0.04006278, No Iterations 1
GAMG:  Solving for p, Initial residual = 1, Final residual = 0.040087697, No Iterations 5
GAMG:  Solving for p, Initial residual = 0.0016021699, Final residual = 3.8380785e-05, No Iterations 2
GAMG:  Solving for p, Initial residual = 5.7012005e-05, Final residual = 2.1939812e-06, No Iterations 4
time step continuity errors : sum local = 0.00027259717, global = -3.8280658e-05, cumulative = -3.8280658e-05
ExecutionTime = 7.41 s  ClockTime = 7 s

scalarTransport execute: T
smoothSolver:  Solving for T, Initial residual = 1, Final residual = 0.092634782, No Iterations 3
scalarTransport: T: T is converged.
	initial-residual tolerance: 1
	outer iteration: 1

Time = 2

smoothSolver:  Solving for Ux, Initial residual = 0.34989341, Final residual = 0.032605845, No Iterations 5
smoothSolver:  Solving for Uy, Initial residual = 0.34013005, Final residual = 0.025799681, No Iterations 5
smoothSolver:  Solving for Uz, Initial residual = 0.44229973, Final residual = 0.043140743, No Iterations 3
GAMG:  Solving for p, Initial residual = 0.0034518955, Final residual = 0.0001280681, No Iterations 4
GAMG:  Solving for p, Initial residual = 0.0071756849, Final residual = 0.0002097605, No Iterations 2
GAMG:  Solving for p, Initial residual = 0.00032523483, Final residual = 1.3127241e-05, No Iterations 4
time step continuity errors : sum local = 0.00021328715, global = 3.372412e-05, cumulative = -4.5565373e-06
ExecutionTime = 10.85 s  ClockTime = 11 s

scalarTransport execute: T
smoothSolver:  Solving for T, Initial residual = 0.066527571, Final residual = 0.0045948901, No Iterations 5
scalarTransport: T: T is converged.
	initial-residual tolerance: 1
	outer iteration: 1

Time = 3

smoothSolver:  Solving for Ux, Initial residual = 0.10267843, Final residual = 0.0073345997, No Iterations 5
smoothSolver:  Solving for Uy, Initial residual = 0.14245182, Final residual = 0.010430401, No Iterations 5
smoothSolver:  Solving for Uz, Initial residual = 0.29206891, Final residual = 0.026493961, No Iterations 3
GAMG:  Solving for p, Initial residual = 0.0066320308, Final residual = 0.0001332831, No Iterations 4
GAMG:  Solving for p, Initial residual = 0.0026955962, Final residual = 8.3699642e-05, No Iterations 2
GAMG:  Solving for p, Initial residual = 0.00012912527, Final residual = 4.2150728e-06, No Iterations 4
time step continuity errors : sum local = 3.2225652e-05, global = 4.47153e-06, cumulative = -8.5007256e-08
ExecutionTime = 14.38 s  ClockTime = 14 s

scalarTransport execute: T
smoothSolver:  Solving for T, Initial residual = 0.027384403, Final residual = 0.0025618321, No Iterations 5
scalarTransport: T: T is converged.
	initial-residual tolerance: 1
	outer iteration: 1

Time = 4

smoothSolver:  Solving for Ux, Initial residual = 0.046034734, Final residual = 0.0031221048, No Iterations 5
smoothSolver:  Solving for Uy, Initial residual = 0.09452738, Final residual = 0.0073332378, No Iterations 5
smoothSolver:  Solving for Uz, Initial residual = 0.13966266, Final residual = 0.011834939, No Iterations 4
GAMG:  Solving for p, Initial residual = 0.0081775001, Final residual = 0.00027860216, No Iterations 3
GAMG:  Solving for p, Initial residual = 0.0012580704, Final residual = 3.1124398e-05, No Iterations 3
GAMG:  Solving for p, Initial residual = 7.2239805e-05, Final residual = 3.1659151e-06, No Iterations 3
time step continuity errors : sum local = 1.7902906e-05, global = 1.5487426e-06, cumulative = 1.4637354e-06
ExecutionTime = 17.08 s  ClockTime = 17 s

scalarTransport execute: T
smoothSolver:  Solving for T, Initial residual = 0.01674734, Final residual = 0.0011465038, No Iterations 6
scalarTransport: T: T is converged.
	initial-residual tolerance: 1
	outer iteration: 1

Time = 5

smoothSolver:  Solving for Ux, Initial residual = 0.029738777, Final residual = 0.0022462187, No Iterations 5
smoothSolver:  Solving for Uy, Initial residual = 0.071877666, Final residual = 0.0062446551, No Iterations 5
smoothSolver:  Solving for Uz, Initial residual = 0.076954263, Final residual = 0.005327996, No Iterations 5
GAMG:  Solving for p, Initial residual = 0.0086950353, Final residual = 0.00018584862, No Iterations 3
GAMG:  Solving for p, Initial residual = 0.00069414898, Final residual = 3.376388e-05, No Iterations 2
GAMG:  Solving for p, Initial residual = 5.2777542e-05, Final residual = 1.6075627e-06, No Iterations 4
time step continuity errors : sum local = 7.8273433e-06, global = 1.2406179e-06, cumulative = 2.7043533e-06
ExecutionTime = 19.87 s  ClockTime = 20 s

scalarTransport execute: T
smoothSolver:  Solving for T, Initial residual = 0.012043767, Final residual = 0.00085300462, No Iterations 6
scalarTransport: T: T is converged.
	initial-residual tolerance: 1
	outer iteration: 1

Time = 6

smoothSolver:  Solving for Ux, Initial residual = 0.023047318, Final residual = 0.0018516351, No Iterations 5
smoothSolver:  Solving for Uy, Initial residual = 0.05770154, Final residual = 0.0054428567, No Iterations 5
smoothSolver:  Solving for Uz, Initial residual = 0.054344329, Final residual = 0.0041216615, No Iterations 5
GAMG:  Solving for p, Initial residual = 0.0081977999, Final residual = 0.0001321448, No Iterations 3
GAMG:  Solving for p, Initial residual = 0.00048423449, Final residual = 2.3046418e-05, No Iterations 2
GAMG:  Solving for p, Initial residual = 3.7738406e-05, Final residual = 1.1051524e-06, No Iterations 4
time step continuity errors : sum local = 4.8940786e-06, global = 7.5990898e-07, cumulative = 3.4642623e-06
ExecutionTime = 22.67 s  ClockTime = 22 s

scalarTransport execute: T
smoothSolver:  Solving for T, Initial residual = 0.0095061615, Final residual = 0.00067235091, No Iterations 6
scalarTransport: T: T is converged.
	initial-residual tolerance: 1
	outer iteration: 1

Time = 7

smoothSolver:  Solving for Ux, Initial residual = 0.019117826, Final residual = 0.0016032106, No Iterations 5
smoothSolver:  Solving for Uy, Initial residual = 0.049626299, Final residual = 0.0048819857, No Iterations 5
smoothSolver:  Solving for Uz, Initial residual = 0.044370197, Final residual = 0.0034645291, No Iterations 5
GAMG:  Solving for p, Initial residual = 0.0069913379, Final residual = 0.00010526221, No Iterations 3
GAMG:  Solving for p, Initial residual = 0.00037810731, Final residual = 1.7608842e-05, No Iterations 2
GAMG:  Solving for p, Initial residual = 3.0295344e-05, Final residual = 7.5923199e-07, No Iterations 4
time step continuity errors : sum local = 3.1355987e-06, global = 5.8844897e-07, cumulative = 4.0527112e-06
ExecutionTime = 25.54 s  ClockTime = 25 s

scalarTransport execute: T
smoothSolver:  Solving for T, Initial residual = 0.0079296935, Final residual = 0.00055087068, No Iterations 6
scalarTransport: T: T is converged.
	initial-residual tolerance: 1
	outer iteration: 1

Time = 8

smoothSolver:  Solving for Ux, Initial residual = 0.016295472, Final residual = 0.0014151435, No Iterations 5
smoothSolver:  Solving for Uy, Initial residual = 0.044615177, Final residual = 0.0028516523, No Iterations 6
smoothSolver:  Solving for Uz, Initial residual = 0.037737167, Final residual = 0.0029837531, No Iterations 5
GAMG:  Solving for p, Initial residual = 0.0059964652, Final residual = 8.8614462e-05, No Iterations 3
GAMG:  Solving for p, Initial residual = 0.00030584492, Final residual = 1.4650274e-05, No Iterations 2
GAMG:  Solving for p, Initial residual = 2.5966324e-05, Final residual = 6.1626768e-07, No Iterations 4
time step continuity errors : sum local = 2.405046e-06, global = 4.6321391e-07, cumulative = 4.5159251e-06
ExecutionTime = 28.3 s  ClockTime = 28 s

scalarTransport execute: T
smoothSolver:  Solving for T, Initial residual = 0.0068627529, Final residual = 0.00046519879, No Iterations 6
scalarTransport: T: T is converged.
	initial-residual tolerance: 1
	outer iteration: 1

Time = 9

smoothSolver:  Solving for Ux, Initial residual = 0.014159357, Final residual = 0.0012639245, No Iterations 5
smoothSolver:  Solving for Uy, Initial residual = 0.039873876, Final residual = 0.0025692091, No Iterations 6
smoothSolver:  Solving for Uz, Initial residual = 0.032487978, Final residual = 0.0026064516, No Iterations 5
GAMG:  Solving for p, Initial residual = 0.0051803642, Final residual = 7.5915545e-05, No Iterations 3
GAMG:  Solving for p, Initial residual = 0.00025474931, Final residual = 1.2593833e-05, No Iterations 2
GAMG:  Solving for p, Initial residual = 2.2609585e-05, Final residual = 5.3327713e-07, No Iterations 4
time step continuity errors : sum local = 1.9849899e-06, global = 3.7758904e-07, cumulative = 4.8935142e-06
ExecutionTime = 31.16 s  ClockTime = 31 s

scalarTransport execute: T
smoothSolver:  Solving for T, Initial residual = 0.0060967028, Final residual = 0.0004015451, No Iterations 6
scalarTransport: T: T is converged.
	initial-residual tolerance: 1
	outer iteration: 1

Time = 10

smoothSolver:  Solving for Ux, Initial residual = 0.012487588, Final residual = 0.001137621, No Iterations 5
smoothSolver:  Solving for Uy, Initial residual = 0.03644534, Final residual = 0.0023618322, No Iterations 6
smoothSolver:  Solving for Uz, Initial residual = 0.028089948, Final residual = 0.0022848554, No Iterations 5
GAMG:  Solving for p, Initial residual = 0.0046523384, Final residual = 6.7590261e-05, No Iterations 3
GAMG:  Solving for p, Initial residual = 0.00022096031, Final residual = 4.7749315e-06, No Iterations 3
GAMG:  Solving for p, Initial residual = 1.5096126e-05, Final residual = 5.6590525e-07, No Iterations 3
time step continuity errors : sum local = 2.0218217e-06, global = -1.3682464e-07, cumulative = 4.7566895e-06
ExecutionTime = 33.93 s  ClockTime = 34 s

scalarTransport execute: T
smoothSolver:  Solving for T, Initial residual = 0.0055200132, Final residual = 0.00035243445, No Iterations 6
scalarTransport: T: T is converged.
	initial-residual tolerance: 1
	outer iteration: 1

Time = 11

smoothSolver:  Solving for Ux, Initial residual = 0.011180404, Final residual = 0.0010311469, No Iterations 5
smoothSolver:  Solving for Uy, Initial residual = 0.033626988, Final residual = 0.0021916596, No Iterations 6
smoothSolver:  Solving for Uz, Initial residual = 0.024525875, Final residual = 0.0020152481, No Iterations 5
GAMG:  Solving for p, Initial residual = 0.004144727, Final residual = 6.1787264e-05, No Iterations 3
GAMG:  Solving for p, Initial residual = 0.00019803975, Final residual = 4.5743264e-06, No Iterations 3
GAMG:  Solving for p, Initial residual = 1.4184145e-05, Final residual = 5.1534768e-07, No Iterations 3
time step continuity errors : sum local = 1.7767957e-06, global = -1.2171061e-07, cumulative = 4.6349789e-06
ExecutionTime = 36.9 s  ClockTime = 37 s

scalarTransport execute: T
smoothSolver:  Solving for T, Initial residual = 0.0050708727, Final residual = 0.00049352328, No Iterations 5
scalarTransport: T: T is converged.
	initial-residual tolerance: 1
	outer iteration: 1

Time = 12

smoothSolver:  Solving for Ux, Initial residual = 0.010104042, Final residual = 0.00093996268, No Iterations 5
smoothSolver:  Solving for Uy, Initial residual = 0.03110195, Final residual = 0.0020420622, No Iterations 6
smoothSolver:  Solving for Uz, Initial residual = 0.02170879, Final residual = 0.0017916048, No Iterations 5
GAMG:  Solving for p, Initial residual = 0.0036697965, Final residual = 5.7405964e-05, No Iterations 3
GAMG:  Solving for p, Initial residual = 0.00018125647, Final residual = 4.3627491e-06, No Iterations 3
GAMG:  Solving for p, Initial residual = 1.3299278e-05, Final residual = 4.7222859e-07, No Iterations 3
time step continuity errors : sum local = 1.5777226e-06, global = -1.0761543e-07, cumulative = 4.5273635e-06
ExecutionTime = 40.36 s  ClockTime = 40 s

scalarTransport execute: T
smoothSolver:  Solving for T, Initial residual = 0.0047270209, Final residual = 0.0004484867, No Iterations 5
scalarTransport: T: T is converged.
	initial-residual tolerance: 1
	outer iteration: 1

Time = 13

smoothSolver:  Solving for Ux, Initial residual = 0.0091778617, Final residual = 0.00086078813, No Iterations 5
smoothSolver:  Solving for Uy, Initial residual = 0.028819224, Final residual = 0.0019058578, No Iterations 6
smoothSolver:  Solving for Uz, Initial residual = 0.0195271, Final residual = 0.001607962, No Iterations 5
GAMG:  Solving for p, Initial residual = 0.0032871119, Final residual = 5.314138e-05, No Iterations 3
GAMG:  Solving for p, Initial residual = 0.00016735398, Final residual = 4.0874596e-06, No Iterations 3
GAMG:  Solving for p, Initial residual = 1.2431211e-05, Final residual = 4.3676335e-07, No Iterations 3
time step continuity errors : sum local = 1.4186407e-06, global = -1.0022938e-07, cumulative = 4.4271341e-06
ExecutionTime = 43.89 s  ClockTime = 44 s

scalarTransport execute: T
smoothSolver:  Solving for T, Initial residual = 0.0044399212, Final residual = 0.00041054618, No Iterations 5
scalarTransport: T: T is converged.
	initial-residual tolerance: 1
	outer iteration: 1

Time = 14

smoothSolver:  Solving for Ux, Initial residual = 0.0083739307, Final residual = 0.00079122241, No Iterations 5
smoothSolver:  Solving for Uy, Initial residual = 0.026800137, Final residual = 0.0017805932, No Iterations 6
smoothSolver:  Solving for Uz, Initial residual = 0.017715035, Final residual = 0.0014562314, No Iterations 5
GAMG:  Solving for p, Initial residual = 0.0030113498, Final residual = 4.885902e-05, No Iterations 3
GAMG:  Solving for p, Initial residual = 0.00015485825, Final residual = 3.7775573e-06, No Iterations 3
GAMG:  Solving for p, Initial residual = 1.1585825e-05, Final residual = 4.0536795e-07, No Iterations 3
time step continuity errors : sum local = 1.2835096e-06, global = -9.6265509e-08, cumulative = 4.3308686e-06
ExecutionTime = 47.24 s  ClockTime = 47 s

scalarTransport execute: T
smoothSolver:  Solving for T, Initial residual = 0.0041935137, Final residual = 0.0003782012, No Iterations 5
scalarTransport: T: T is converged.
	initial-residual tolerance: 1
	outer iteration: 1

Time = 15

smoothSolver:  Solving for Ux, Initial residual = 0.0076700182, Final residual = 0.00072953266, No Iterations 5
smoothSolver:  Solving for Uy, Initial residual = 0.025028801, Final residual = 0.0016650343, No Iterations 6
smoothSolver:  Solving for Uz, Initial residual = 0.016146436, Final residual = 0.0013273836, No Iterations 5
GAMG:  Solving for p, Initial residual = 0.0027484739, Final residual = 4.5502212e-05, No Iterations 3
GAMG:  Solving for p, Initial residual = 0.0001440055, Final residual = 3.5489162e-06, No Iterations 3
GAMG:  Solving for p, Initial residual = 1.0842159e-05, Final residual = 3.769707e-07, No Iterations 3
time step continuity errors : sum local = 1.1662714e-06, global = -8.8714526e-08, cumulative = 4.2421541e-06
ExecutionTime = 50.01 s  ClockTime = 50 s

scalarTransport execute: T
smoothSolver:  Solving for T, Initial residual = 0.0039762082, Final residual = 0.00035019277, No Iterations 5
scalarTransport: T: T is converged.
	initial-residual tolerance: 1
	outer iteration: 1

Time = 16

smoothSolver:  Solving for Ux, Initial residual = 0.007053926, Final residual = 0.00067448669, No Iterations 5
smoothSolver:  Solving for Uy, Initial residual = 0.023442904, Final residual = 0.0015575276, No Iterations 6
smoothSolver:  Solving for Uz, Initial residual = 0.014777611, Final residual = 0.0012157614, No Iterations 5
GAMG:  Solving for p, Initial residual = 0.0025059329, Final residual = 4.2427793e-05, No Iterations 3
GAMG:  Solving for p, Initial residual = 0.00013367328, Final residual = 3.2976188e-06, No Iterations 3
GAMG:  Solving for p, Initial residual = 1.0042003e-05, Final residual = 3.5049911e-07, No Iterations 3
time step continuity errors : sum local = 1.0616833e-06, global = -7.4919022e-08, cumulative = 4.167235e-06
ExecutionTime = 52.8 s  ClockTime = 53 s

scalarTransport execute: T
smoothSolver:  Solving for T, Initial residual = 0.0037795721, Final residual = 0.000325572, No Iterations 5
scalarTransport: T: T is converged.
	initial-residual tolerance: 1
	outer iteration: 1

Time = 17

smoothSolver:  Solving for Ux, Initial residual = 0.0065114715, Final residual = 0.00062518164, No Iterations 5
smoothSolver:  Solving for Uy, Initial residual = 0.021976478, Final residual = 0.0014559777, No Iterations 6
smoothSolver:  Solving for Uz, Initial residual = 0.013579525, Final residual = 0.0011188666, No Iterations 5
GAMG:  Solving for p, Initial residual = 0.0022939876, Final residual = 3.9277584e-05, No Iterations 3
GAMG:  Solving for p, Initial residual = 0.00012332505, Final residual = 3.0443197e-06, No Iterations 3
GAMG:  Solving for p, Initial residual = 9.2645538e-06, Final residual = 3.240765e-07, No Iterations 3
time step continuity errors : sum local = 9.6273421e-07, global = -6.9476167e-08, cumulative = 4.0977589e-06
ExecutionTime = 55.64 s  ClockTime = 55 s

scalarTransport execute: T
smoothSolver:  Solving for T, Initial residual = 0.0035975313, Final residual = 0.00030362397, No Iterations 5
scalarTransport: T: T is converged.
	initial-residual tolerance: 1
	outer iteration: 1

Time = 18

smoothSolver:  Solving for Ux, Initial residual = 0.0060296358, Final residual = 0.00058082167, No Iterations 5
smoothSolver:  Solving for Uy, Initial residual = 0.020596501, Final residual = 0.0013594645, No Iterations 6
smoothSolver:  Solving for Uz, Initial residual = 0.012533181, Final residual = 0.0010356152, No Iterations 5
GAMG:  Solving for p, Initial residual = 0.0021079615, Final residual = 3.6139719e-05, No Iterations 3
GAMG:  Solving for p, Initial residual = 0.00011317082, Final residual = 2.8023243e-06, No Iterations 3
GAMG:  Solving for p, Initial residual = 8.501491e-06, Final residual = 2.9664614e-07, No Iterations 3
time step continuity errors : sum local = 8.6557151e-07, global = -7.1975622e-08, cumulative = 4.0257833e-06
ExecutionTime = 58.4 s  ClockTime = 58 s

scalarTransport execute: T
smoothSolver:  Solving for T, Initial residual = 0.0034259344, Final residual = 0.00028381638, No Iterations 5
scalarTransport: T: T is converged.
	initial-residual tolerance: 1
	outer iteration: 1

Time = 19

smoothSolver:  Solving for Ux, Initial residual = 0.0055982316, Final residual = 0.00054071919, No Iterations 5
smoothSolver:  Solving for Uy, Initial residual = 0.01930239, Final residual = 0.00126808, No Iterations 6
smoothSolver:  Solving for Uz, Initial residual = 0.011608802, Final residual = 0.00096465852, No Iterations 5
GAMG:  Solving for p, Initial residual = 0.0019355843, Final residual = 3.322495e-05, No Iterations 3
GAMG:  Solving for p, Initial residual = 0.00010358595, Final residual = 2.5950465e-06, No Iterations 3
GAMG:  Solving for p, Initial residual = 7.8194533e-06, Final residual = 2.6944989e-07, No Iterations 3
time step continuity errors : sum local = 7.732389e-07, global = -8.2211162e-08, cumulative = 3.9435721e-06
ExecutionTime = 61.17 s  ClockTime = 61 s

scalarTransport execute: T
smoothSolver:  Solving for T, Initial residual = 0.003262071, Final residual = 0.00026574714, No Iterations 5
scalarTransport: T: T is converged.
	initial-residual tolerance: 1
	outer iteration: 1

Time = 20

smoothSolver:  Solving for Ux, Initial residual = 0.0052106088, Final residual = 0.0005043167, No Iterations 5
smoothSolver:  Solving for Uy, Initial residual = 0.018092608, Final residual = 0.0011824874, No Iterations 6
smoothSolver:  Solving for Uz, Initial residual = 0.010787985, Final residual = 0.00090368117, No Iterations 5
GAMG:  Solving for p, Initial residual = 0.001779755, Final residual = 3.0541363e-05, No Iterations 3
GAMG:  Solving for p, Initial residual = 9.4894433e-05, Final residual = 2.3963657e-06, No Iterations 3
GAMG:  Solving for p, Initial residual = 7.2294476e-06, Final residual = 2.4740177e-07, No Iterations 3
time step continuity errors : sum local = 6.9905288e-07, global = -9.1443438e-08, cumulative = 3.8521287e-06
ExecutionTime = 63.94 s  ClockTime = 64 s

scalarTransport execute: T
smoothSolver:  Solving for T, Initial residual = 0.0031042055, Final residual = 0.0002491117, No Iterations 5
scalarTransport: T: T is converged.
	initial-residual tolerance: 1
	outer iteration: 1

Time = 21

smoothSolver:  Solving for Ux, Initial residual = 0.0048603832, Final residual = 0.00047112275, No Iterations 5
smoothSolver:  Solving for Uy, Initial residual = 0.016968466, Final residual = 0.0011033588, No Iterations 6
smoothSolver:  Solving for Uz, Initial residual = 0.010068379, Final residual = 0.00085131054, No Iterations 5
GAMG:  Solving for p, Initial residual = 0.0016404012, Final residual = 2.8133852e-05, No Iterations 3
GAMG:  Solving for p, Initial residual = 8.7141654e-05, Final residual = 2.1859091e-06, No Iterations 3
GAMG:  Solving for p, Initial residual = 6.7261983e-06, Final residual = 2.2522326e-07, No Iterations 3
time step continuity errors : sum local = 6.2725944e-07, global = -8.4737157e-08, cumulative = 3.7673915e-06
ExecutionTime = 66.86 s  ClockTime = 67 s

scalarTransport execute: T
smoothSolver:  Solving for T, Initial residual = 0.0029513819, Final residual = 0.00023367989, No Iterations 5
scalarTransport: T: T is converged.
	initial-residual tolerance: 1
	outer iteration: 1

Time = 22

smoothSolver:  Solving for Ux, Initial residual = 0.0045424886, Final residual = 0.00044072393, No Iterations 5
smoothSolver:  Solving for Uy, Initial residual = 0.015930296, Final residual = 0.001031017, No Iterations 6
smoothSolver:  Solving for Uz, Initial residual = 0.009448135, Final residual = 0.00080717437, No Iterations 5
GAMG:  Solving for p, Initial residual = 0.0015177435, Final residual = 2.6639528e-05, No Iterations 3
GAMG:  Solving for p, Initial residual = 8.0860292e-05, Final residual = 2.0459732e-06, No Iterations 3
GAMG:  Solving for p, Initial residual = 6.3977986e-06, Final residual = 2.0524447e-07, No Iterations 3
time step continuity errors : sum local = 5.6396649e-07, global = -7.4500551e-08, cumulative = 3.6928909e-06
ExecutionTime = 70.3 s  ClockTime = 70 s

scalarTransport execute: T
smoothSolver:  Solving for T, Initial residual = 0.0028030574, Final residual = 0.00021927871, No Iterations 5
scalarTransport: T: T is converged.
	initial-residual tolerance: 1
	outer iteration: 1

Time = 23

smoothSolver:  Solving for Ux, Initial residual = 0.0042525387, Final residual = 0.00041275903, No Iterations 5
smoothSolver:  Solving for Uy, Initial residual = 0.01497765, Final residual = 0.00096544892, No Iterations 6
smoothSolver:  Solving for Uz, Initial residual = 0.0089180349, Final residual = 0.00077028097, No Iterations 5
GAMG:  Solving for p, Initial residual = 0.0014075127, Final residual = 2.5396243e-05, No Iterations 3
GAMG:  Solving for p, Initial residual = 7.5383097e-05, Final residual = 1.9164008e-06, No Iterations 3
GAMG:  Solving for p, Initial residual = 6.105486e-06, Final residual = 1.9140941e-07, No Iterations 3
time step continuity errors : sum local = 5.1937453e-07, global = -6.4150629e-08, cumulative = 3.6287403e-06
ExecutionTime = 73.69 s  ClockTime = 74 s

scalarTransport execute: T
smoothSolver:  Solving for T, Initial residual = 0.0026590121, Final residual = 0.00020577817, No Iterations 5
scalarTransport: T: T is converged.
	initial-residual tolerance: 1
	outer iteration: 1

Time = 24

smoothSolver:  Solving for Ux, Initial residual = 0.0039864017, Final residual = 0.00038689359, No Iterations 5
smoothSolver:  Solving for Uy, Initial residual = 0.014104783, Final residual = 0.00090600484, No Iterations 6
smoothSolver:  Solving for Uz, Initial residual = 0.0084666104, Final residual = 0.00073939462, No Iterations 5
GAMG:  Solving for p, Initial residual = 0.0013052679, Final residual = 2.423465e-05, No Iterations 3
GAMG:  Solving for p, Initial residual = 7.0566099e-05, Final residual = 1.8217509e-06, No Iterations 3
GAMG:  Solving for p, Initial residual = 5.8733631e-06, Final residual = 1.8437684e-07, No Iterations 3
time step continuity errors : sum local = 4.9445121e-07, global = -5.5257996e-08, cumulative = 3.5734823e-06
ExecutionTime = 76.47 s  ClockTime = 76 s

scalarTransport execute: T
smoothSolver:  Solving for T, Initial residual = 0.0025192109, Final residual = 0.00019308139, No Iterations 5
scalarTransport: T: T is converged.
	initial-residual tolerance: 1
	outer iteration: 1

Time = 25

smoothSolver:  Solving for Ux, Initial residual = 0.0037406995, Final residual = 0.00036284397, No Iterations 5
smoothSolver:  Solving for Uy, Initial residual = 0.013307565, Final residual = 0.00085176928, No Iterations 6
smoothSolver:  Solving for Uz, Initial residual = 0.0080801105, Final residual = 0.00071325703, No Iterations 5
GAMG:  Solving for p, Initial residual = 0.0012097056, Final residual = 2.294249e-05, No Iterations 3
GAMG:  Solving for p, Initial residual = 6.6119696e-05, Final residual = 1.7187486e-06, No Iterations 3
GAMG:  Solving for p, Initial residual = 5.6251458e-06, Final residual = 1.7793927e-07, No Iterations 3
time step continuity errors : sum local = 4.7201133e-07, global = -4.9098294e-08, cumulative = 3.524384e-06
ExecutionTime = 79.2 s  ClockTime = 79 s

scalarTransport execute: T
smoothSolver:  Solving for T, Initial residual = 0.0023837312, Final residual = 0.00018111568, No Iterations 5
scalarTransport: T: T is converged.
	initial-residual tolerance: 1
	outer iteration: 1

Time = 26

smoothSolver:  Solving for Ux, Initial residual = 0.0035128341, Final residual = 0.00034036955, No Iterations 5
smoothSolver:  Solving for Uy, Initial residual = 0.012578399, Final residual = 0.00080190114, No Iterations 6
smoothSolver:  Solving for Uz, Initial residual = 0.0077440694, Final residual = 0.00069046542, No Iterations 5
GAMG:  Solving for p, Initial residual = 0.0011219137, Final residual = 2.1515017e-05, No Iterations 3
GAMG:  Solving for p, Initial residual = 6.1894951e-05, Final residual = 1.6162121e-06, No Iterations 3
GAMG:  Solving for p, Initial residual = 5.3591175e-06, Final residual = 1.7032712e-07, No Iterations 3
time step continuity errors : sum local = 4.4729368e-07, global = -4.3410503e-08, cumulative = 3.4809735e-06
ExecutionTime = 82.02 s  ClockTime = 82 s

scalarTransport execute: T
smoothSolver:  Solving for T, Initial residual = 0.0022526728, Final residual = 0.00016982305, No Iterations 5
scalarTransport: T: T is converged.
	initial-residual tolerance: 1
	outer iteration: 1

Time = 27

smoothSolver:  Solving for Ux, Initial residual = 0.0033004238, Final residual = 0.00031927834, No Iterations 5
smoothSolver:  Solving for Uy, Initial residual = 0.011906015, Final residual = 0.00075560673, No Iterations 6
smoothSolver:  Solving for Uz, Initial residual = 0.0074467506, Final residual = 0.00066997804, No Iterations 5
GAMG:  Solving for p, Initial residual = 0.0010421602, Final residual = 1.9983487e-05, No Iterations 3
GAMG:  Solving for p, Initial residual = 5.7745835e-05, Final residual = 1.5066479e-06, No Iterations 3
GAMG:  Solving for p, Initial residual = 5.0561453e-06, Final residual = 1.6166878e-07, No Iterations 3
time step continuity errors : sum local = 4.2065779e-07, global = -3.7909086e-08, cumulative = 3.4430644e-06
ExecutionTime = 84.82 s  ClockTime = 85 s

scalarTransport execute: T
smoothSolver:  Solving for T, Initial residual = 0.0021262204, Final residual = 0.00015916136, No Iterations 5
scalarTransport: T: T is converged.
	initial-residual tolerance: 1
	outer iteration: 1

Time = 28

smoothSolver:  Solving for Ux, Initial residual = 0.0031014441, Final residual = 0.00029941359, No Iterations 5
smoothSolver:  Solving for Uy, Initial residual = 0.011281834, Final residual = 0.0011258984, No Iterations 5
smoothSolver:  Solving for Uz, Initial residual = 0.0071787146, Final residual = 0.00065084279, No Iterations 5
GAMG:  Solving for p, Initial residual = 0.00095674005, Final residual = 1.8030157e-05, No Iterations 3
GAMG:  Solving for p, Initial residual = 5.3577997e-05, Final residual = 1.3602608e-06, No Iterations 3
GAMG:  Solving for p, Initial residual = 4.6631785e-06, Final residual = 1.4933042e-07, No Iterations 3
time step continuity errors : sum local = 3.8529871e-07, global = -3.3410608e-08, cumulative = 3.4096538e-06
ExecutionTime = 87.62 s  ClockTime = 88 s

scalarTransport execute: T
smoothSolver:  Solving for T, Initial residual = 0.0020046791, Final residual = 0.00014909271, No Iterations 5
scalarTransport: T: T is converged.
	initial-residual tolerance: 1
	outer iteration: 1

Time = 29

smoothSolver:  Solving for Ux, Initial residual = 0.0029119369, Final residual = 0.00028040692, No Iterations 5
smoothSolver:  Solving for Uy, Initial residual = 0.010888059, Final residual = 0.0010830899, No Iterations 5
smoothSolver:  Solving for Uz, Initial residual = 0.0069014064, Final residual = 0.0006296668, No Iterations 5
GAMG:  Solving for p, Initial residual = 0.00089873426, Final residual = 1.6828161e-05, No Iterations 3
GAMG:  Solving for p, Initial residual = 4.9393165e-05, Final residual = 1.3379416e-06, No Iterations 3
GAMG:  Solving for p, Initial residual = 4.2866883e-06, Final residual = 1.4022291e-07, No Iterations 3
time step continuity errors : sum local = 3.5910593e-07, global = -3.1905571e-08, cumulative = 3.3777483e-06
ExecutionTime = 90.38 s  ClockTime = 90 s

scalarTransport execute: T
smoothSolver:  Solving for T, Initial residual = 0.0018881906, Final residual = 0.00013959303, No Iterations 5
scalarTransport: T: T is converged.
	initial-residual tolerance: 1
	outer iteration: 1

Time = 30

smoothSolver:  Solving for Ux, Initial residual = 0.002734736, Final residual = 0.00026259305, No Iterations 5
smoothSolver:  Solving for Uy, Initial residual = 0.010380735, Final residual = 0.0010269381, No Iterations 5
smoothSolver:  Solving for Uz, Initial residual = 0.0066524699, Final residual = 0.0006107532, No Iterations 5
GAMG:  Solving for p, Initial residual = 0.00083939349, Final residual = 1.5390565e-05, No Iterations 3
GAMG:  Solving for p, Initial residual = 4.5232016e-05, Final residual = 1.2217113e-06, No Iterations 3
GAMG:  Solving for p, Initial residual = 3.8708391e-06, Final residual = 1.2950375e-07, No Iterations 3
time step continuity errors : sum local = 3.2947886e-07, global = -2.7928344e-08, cumulative = 3.3498199e-06
ExecutionTime = 93.14 s  ClockTime = 93 s

scalarTransport execute: T
smoothSolver:  Solving for T, Initial residual = 0.0017768798, Final residual = 0.00013064237, No Iterations 5
scalarTransport: T: T is converged.
	initial-residual tolerance: 1
	outer iteration: 1

Time = 31

smoothSolver:  Solving for Ux, Initial residual = 0.0025670251, Final residual = 0.00024575251, No Iterations 5
smoothSolver:  Solving for Uy, Initial residual = 0.0098694219, Final residual = 0.00097035788, No Iterations 5
smoothSolver:  Solving for Uz, Initial residual = 0.0064183481, Final residual = 0.00059279701, No Iterations 5
GAMG:  Solving for p, Initial residual = 0.00078538148, Final residual = 1.4039048e-05, No Iterations 3
GAMG:  Solving for p, Initial residual = 4.1223456e-05, Final residual = 1.1182589e-06, No Iterations 3
GAMG:  Solving for p, Initial residual = 3.442146e-06, Final residual = 1.1790107e-07, No Iterations 3
time step continuity errors : sum local = 2.9825711e-07, global = -2.4904963e-08, cumulative = 3.324915e-06
ExecutionTime = 95.93 s  ClockTime = 96 s

scalarTransport execute: T
smoothSolver:  Solving for T, Initial residual = 0.0016707725, Final residual = 0.00012221953, No Iterations 5
scalarTransport: T: T is converged.
	initial-residual tolerance: 1
	outer iteration: 1

Time = 32

smoothSolver:  Solving for Ux, Initial residual = 0.0024076483, Final residual = 0.00022976874, No Iterations 5
smoothSolver:  Solving for Uy, Initial residual = 0.0093764458, Final residual = 0.00091564069, No Iterations 5
smoothSolver:  Solving for Uz, Initial residual = 0.0061909609, Final residual = 0.00057516064, No Iterations 5
GAMG:  Solving for p, Initial residual = 0.00073615652, Final residual = 1.2998505e-05, No Iterations 3
GAMG:  Solving for p, Initial residual = 3.7571809e-05, Final residual = 1.0325605e-06, No Iterations 3
GAMG:  Solving for p, Initial residual = 3.0124088e-06, Final residual = 1.0571758e-07, No Iterations 3
time step continuity errors : sum local = 2.6615589e-07, global = -2.3681628e-08, cumulative = 3.3012333e-06
ExecutionTime = 99.21 s  ClockTime = 99 s

scalarTransport execute: T
smoothSolver:  Solving for T, Initial residual = 0.0015697893, Final residual = 0.00011429856, No Iterations 5
scalarTransport: T: T is converged.
	initial-residual tolerance: 1
	outer iteration: 1

Time = 33

smoothSolver:  Solving for Ux, Initial residual = 0.002255966, Final residual = 0.000214585, No Iterations 5
smoothSolver:  Solving for Uy, Initial residual = 0.0089023266, Final residual = 0.00086292577, No Iterations 5
smoothSolver:  Solving for Uz, Initial residual = 0.0059681043, Final residual = 0.00055773115, No Iterations 5
GAMG:  Solving for p, Initial residual = 0.00069135933, Final residual = 1.2608166e-05, No Iterations 3
GAMG:  Solving for p, Initial residual = 3.4663156e-05, Final residual = 9.5432591e-07, No Iterations 3
GAMG:  Solving for p, Initial residual = 2.5898489e-06, Final residual = 9.2809962e-08, No Iterations 3
time step continuity errors : sum local = 2.3274738e-07, global = -2.4296665e-08, cumulative = 3.2769367e-06
ExecutionTime = 102.6 s  ClockTime = 103 s

scalarTransport execute: T
smoothSolver:  Solving for T, Initial residual = 0.0014738442, Final residual = 0.00010685206, No Iterations 5
scalarTransport: T: T is converged.
	initial-residual tolerance: 1
	outer iteration: 1

Time = 34

smoothSolver:  Solving for Ux, Initial residual = 0.00211141, Final residual = 0.00020016735, No Iterations 5
smoothSolver:  Solving for Uy, Initial residual = 0.0084439143, Final residual = 0.00081200936, No Iterations 5
smoothSolver:  Solving for Uz, Initial residual = 0.0057509078, Final residual = 0.00054054369, No Iterations 5
GAMG:  Solving for p, Initial residual = 0.00064983393, Final residual = 1.2517418e-05, No Iterations 3
GAMG:  Solving for p, Initial residual = 3.2164553e-05, Final residual = 8.4900168e-07, No Iterations 3
GAMG:  Solving for p, Initial residual = 2.2157724e-06, Final residual = 7.0170574e-08, No Iterations 3
time step continuity errors : sum local = 1.7543942e-07, global = -6.0581167e-09, cumulative = 3.2708785e-06
ExecutionTime = 106.14 s  ClockTime = 106 s

scalarTransport execute: T
smoothSolver:  Solving for T, Initial residual = 0.0013828838, Final residual = 9.9857858e-05, No Iterations 5
scalarTransport: T: T is converged.
	initial-residual tolerance: 1
	outer iteration: 1

Time = 35

smoothSolver:  Solving for Ux, Initial residual = 0.0019736556, Final residual = 0.00018648789, No Iterations 5
smoothSolver:  Solving for Uy, Initial residual = 0.0079978112, Final residual = 0.00076281449, No Iterations 5
smoothSolver:  Solving for Uz, Initial residual = 0.0055416322, Final residual = 0.00052353269, No Iterations 5
GAMG:  Solving for p, Initial residual = 0.00061103293, Final residual = 1.1775642e-05, No Iterations 3
GAMG:  Solving for p, Initial residual = 2.9177266e-05, Final residual = 6.3789256e-07, No Iterations 3
GAMG:  Solving for p, Initial residual = 1.7574856e-06, Final residual = 5.8126266e-08, No Iterations 3
time step continuity errors : sum local = 1.4500729e-07, global = 5.1043318e-09, cumulative = 3.2759829e-06
ExecutionTime = 109.49 s  ClockTime = 110 s

scalarTransport execute: T
smoothSolver:  Solving for T, Initial residual = 0.0012968562, Final residual = 9.32975e-05, No Iterations 5
scalarTransport: T: T is converged.
	initial-residual tolerance: 1
	outer iteration: 1

Time = 36

smoothSolver:  Solving for Ux, Initial residual = 0.0018424063, Final residual = 0.00017353339, No Iterations 5
smoothSolver:  Solving for Uy, Initial residual = 0.0075628026, Final residual = 0.00071538633, No Iterations 5
smoothSolver:  Solving for Uz, Initial residual = 0.0053419408, Final residual = 0.00050653085, No Iterations 5
GAMG:  Solving for p, Initial residual = 0.00057502976, Final residual = 1.1061605e-05, No Iterations 3
GAMG:  Solving for p, Initial residual = 2.6418412e-05, Final residual = 5.4919644e-07, No Iterations 3
GAMG:  Solving for p, Initial residual = 1.5653664e-06, Final residual = 6.1509854e-08, No Iterations 3
time step continuity errors : sum local = 1.532307e-07, global = -2.5510349e-08, cumulative = 3.2504725e-06
ExecutionTime = 112.24 s  ClockTime = 112 s

scalarTransport execute: T
smoothSolver:  Solving for T, Initial residual = 0.0012157253, Final residual = 8.7154788e-05, No Iterations 5
scalarTransport: T: T is converged.
	initial-residual tolerance: 1
	outer iteration: 1

Time = 37

smoothSolver:  Solving for Ux, Initial residual = 0.0017174983, Final residual = 0.00016128918, No Iterations 5
smoothSolver:  Solving for Uy, Initial residual = 0.0071370421, Final residual = 0.00066980283, No Iterations 5
smoothSolver:  Solving for Uz, Initial residual = 0.0051513292, Final residual = 0.00048925026, No Iterations 5
GAMG:  Solving for p, Initial residual = 0.00054150003, Final residual = 1.0404603e-05, No Iterations 3
GAMG:  Solving for p, Initial residual = 2.3923402e-05, Final residual = 5.2882313e-07, No Iterations 3
GAMG:  Solving for p, Initial residual = 1.6593259e-06, Final residual = 5.2059095e-08, No Iterations 3
time step continuity errors : sum local = 1.2959449e-07, global = 7.6051556e-09, cumulative = 3.2580777e-06
ExecutionTime = 114.97 s  ClockTime = 115 s

scalarTransport execute: T
smoothSolver:  Solving for T, Initial residual = 0.0011394303, Final residual = 8.1414869e-05, No Iterations 5
scalarTransport: T: T is converged.
	initial-residual tolerance: 1
	outer iteration: 1

Time = 38

smoothSolver:  Solving for Ux, Initial residual = 0.0015988279, Final residual = 0.00014975285, No Iterations 5
smoothSolver:  Solving for Uy, Initial residual = 0.006719843, Final residual = 0.00062615759, No Iterations 5
smoothSolver:  Solving for Uz, Initial residual = 0.0049677202, Final residual = 0.00047145739, No Iterations 5
GAMG:  Solving for p, Initial residual = 0.00050990278, Final residual = 9.8332733e-06, No Iterations 3
GAMG:  Solving for p, Initial residual = 2.1710793e-05, Final residual = 6.4517071e-07, No Iterations 3
GAMG:  Solving for p, Initial residual = 1.9134949e-06, Final residual = 5.27318e-08, No Iterations 3
time step continuity errors : sum local = 1.3126143e-07, global = -1.1330378e-08, cumulative = 3.2467473e-06
ExecutionTime = 117.77 s  ClockTime = 118 s

scalarTransport execute: T
smoothSolver:  Solving for T, Initial residual = 0.0010679051, Final residual = 7.6063094e-05, No Iterations 5
scalarTransport: T: T is converged.
	initial-residual tolerance: 1
	outer iteration: 1

Time = 39

smoothSolver:  Solving for Ux, Initial residual = 0.0014864816, Final residual = 0.00013892451, No Iterations 5
smoothSolver:  Solving for Uy, Initial residual = 0.006311249, Final residual = 0.00058457477, No Iterations 5
smoothSolver:  Solving for Uz, Initial residual = 0.0047875209, Final residual = 0.00045284239, No Iterations 5
GAMG:  Solving for p, Initial residual = 0.00047978874, Final residual = 9.2420847e-06, No Iterations 3
GAMG:  Solving for p, Initial residual = 1.9687824e-05, Final residual = 7.2697138e-07, No Iterations 3
GAMG:  Solving for p, Initial residual = 1.8757133e-06, Final residual = 5.0117165e-08, No Iterations 3
time step continuity errors : sum local = 1.2482139e-07, global = -1.3949112e-08, cumulative = 3.2327982e-06
ExecutionTime = 120.51 s  ClockTime = 121 s

scalarTransport execute: T
smoothSolver:  Solving for T, Initial residual = 0.0010010632, Final residual = 7.1083785e-05, No Iterations 5
scalarTransport: T: T is converged.
	initial-residual tolerance: 1
	outer iteration: 1

Time = 40

smoothSolver:  Solving for Ux, Initial residual = 0.0013805518, Final residual = 0.00012880092, No Iterations 5
smoothSolver:  Solving for Uy, Initial residual = 0.0059121877, Final residual = 0.00054518363, No Iterations 5
smoothSolver:  Solving for Uz, Initial residual = 0.004605439, Final residual = 0.00043319924, No Iterations 5
GAMG:  Solving for p, Initial residual = 0.00045097869, Final residual = 9.0107318e-06, No Iterations 3
GAMG:  Solving for p, Initial residual = 1.8265045e-05, Final residual = 7.0031764e-07, No Iterations 3
GAMG:  Solving for p, Initial residual = 1.5735295e-06, Final residual = 6.0303673e-08, No Iterations 3
time step continuity errors : sum local = 1.5034355e-07, global = -1.5150982e-08, cumulative = 3.2176472e-06
ExecutionTime = 123.32 s  ClockTime = 123 s

scalarTransport execute: T
smoothSolver:  Solving for T, Initial residual = 0.00093880716, Final residual = 6.6460794e-05, No Iterations 5
scalarTransport: T: T is converged.
	initial-residual tolerance: 1
	outer iteration: 1

Time = 41

smoothSolver:  Solving for Ux, Initial residual = 0.0012811185, Final residual = 0.00011937893, No Iterations 5
smoothSolver:  Solving for Uy, Initial residual = 0.0055245946, Final residual = 0.00050814039, No Iterations 5
smoothSolver:  Solving for Uz, Initial residual = 0.0044176745, Final residual = 0.00041245252, No Iterations 5
GAMG:  Solving for p, Initial residual = 0.00042325507, Final residual = 8.6361524e-06, No Iterations 3
GAMG:  Solving for p, Initial residual = 1.685342e-05, Final residual = 7.0987718e-07, No Iterations 3
GAMG:  Solving for p, Initial residual = 1.4926683e-06, Final residual = 6.193467e-08, No Iterations 3
time step continuity errors : sum local = 1.5463139e-07, global = -1.6468899e-08, cumulative = 3.2011783e-06
ExecutionTime = 126.07 s  ClockTime = 126 s

scalarTransport execute: T
smoothSolver:  Solving for T, Initial residual = 0.00088097767, Final residual = 6.2176929e-05, No Iterations 5
scalarTransport: T: T is converged.
	initial-residual tolerance: 1
	outer iteration: 1

Time = 42

smoothSolver:  Solving for Ux, Initial residual = 0.0011882829, Final residual = 0.0001106468, No Iterations 5
smoothSolver:  Solving for Uy, Initial residual = 0.0051514675, Final residual = 0.00047368167, No Iterations 5
smoothSolver:  Solving for Uz, Initial residual = 0.0042214409, Final residual = 0.00039060301, No Iterations 5
GAMG:  Solving for p, Initial residual = 0.00039656791, Final residual = 7.5639718e-06, No Iterations 3
GAMG:  Solving for p, Initial residual = 1.481263e-05, Final residual = 7.2901882e-07, No Iterations 3
GAMG:  Solving for p, Initial residual = 1.6697789e-06, Final residual = 4.5008128e-08, No Iterations 3
time step continuity errors : sum local = 1.1257127e-07, global = -1.2261686e-08, cumulative = 3.1889166e-06
ExecutionTime = 129.13 s  ClockTime = 129 s

scalarTransport execute: T
smoothSolver:  Solving for T, Initial residual = 0.00082741458, Final residual = 5.8213087e-05, No Iterations 5
scalarTransport: T: T is converged.
	initial-residual tolerance: 1
	outer iteration: 1

Time = 43

smoothSolver:  Solving for Ux, Initial residual = 0.0011021699, Final residual = 0.00010258568, No Iterations 5
smoothSolver:  Solving for Uy, Initial residual = 0.0047961151, Final residual = 0.00044209059, No Iterations 5
smoothSolver:  Solving for Uz, Initial residual = 0.0040151883, Final residual = 0.00036777009, No Iterations 5
GAMG:  Solving for p, Initial residual = 0.00037080452, Final residual = 6.3016139e-06, No Iterations 3
GAMG:  Solving for p, Initial residual = 1.2693137e-05, Final residual = 5.3304987e-07, No Iterations 3
GAMG:  Solving for p, Initial residual = 1.574541e-06, Final residual = 8.5482882e-08, No Iterations 2
time step continuity errors : sum local = 2.1422872e-07, global = -8.3717131e-09, cumulative = 3.1805449e-06
ExecutionTime = 132.22 s  ClockTime = 132 s

scalarTransport execute: T
smoothSolver:  Solving for T, Initial residual = 0.00077792631, Final residual = 5.4549173e-05, No Iterations 5
scalarTransport: T: T is converged.
	initial-residual tolerance: 1
	outer iteration: 1

Time = 44

smoothSolver:  Solving for Ux, Initial residual = 0.0010227256, Final residual = 9.5168111e-05, No Iterations 5
smoothSolver:  Solving for Uy, Initial residual = 0.0044622188, Final residual = 0.00041359257, No Iterations 5
smoothSolver:  Solving for Uz, Initial residual = 0.0037987525, Final residual = 0.00034429859, No Iterations 5
GAMG:  Solving for p, Initial residual = 0.00034605893, Final residual = 5.6819866e-06, No Iterations 3
GAMG:  Solving for p, Initial residual = 1.1359425e-05, Final residual = 4.4387748e-07, No Iterations 3
GAMG:  Solving for p, Initial residual = 1.4353833e-06, Final residual = 7.6982085e-08, No Iterations 2
time step continuity errors : sum local = 1.9333819e-07, global = -9.0891487e-09, cumulative = 3.1714558e-06
ExecutionTime = 135.5 s  ClockTime = 136 s

scalarTransport execute: T
smoothSolver:  Solving for T, Initial residual = 0.00073230179, Final residual = 5.1164248e-05, No Iterations 5
scalarTransport: T: T is converged.
	initial-residual tolerance: 1
	outer iteration: 1

Time = 45

smoothSolver:  Solving for Ux, Initial residual = 0.00094985593, Final residual = 8.8349591e-05, No Iterations 5
smoothSolver:  Solving for Uy, Initial residual = 0.0041538067, Final residual = 0.00038841562, No Iterations 5
smoothSolver:  Solving for Uz, Initial residual = 0.0035729094, Final residual = 0.00032043567, No Iterations 5
GAMG:  Solving for p, Initial residual = 0.00032216008, Final residual = 5.2734878e-06, No Iterations 3
GAMG:  Solving for p, Initial residual = 1.0334856e-05, Final residual = 4.0628684e-07, No Iterations 3
GAMG:  Solving for p, Initial residual = 1.3195245e-06, Final residual = 7.089993e-08, No Iterations 2
time step continuity errors : sum local = 1.7846055e-07, global = -4.4034357e-09, cumulative = 3.1670523e-06
ExecutionTime = 138.9 s  ClockTime = 139 s

scalarTransport execute: T
smoothSolver:  Solving for T, Initial residual = 0.00069024596, Final residual = 4.8036528e-05, No Iterations 5
scalarTransport: T: T is converged.
	initial-residual tolerance: 1
	outer iteration: 1

Time = 46

smoothSolver:  Solving for Ux, Initial residual = 0.0008832419, Final residual = 8.2072749e-05, No Iterations 5
smoothSolver:  Solving for Uy, Initial residual = 0.0038747738, Final residual = 0.00036570235, No Iterations 5
smoothSolver:  Solving for Uz, Initial residual = 0.0033399504, Final residual = 0.00029648916, No Iterations 5
GAMG:  Solving for p, Initial residual = 0.0002991983, Final residual = 4.9349288e-06, No Iterations 3
GAMG:  Solving for p, Initial residual = 9.4454676e-06, Final residual = 3.6997644e-07, No Iterations 3
GAMG:  Solving for p, Initial residual = 1.2336436e-06, Final residual = 6.6067466e-08, No Iterations 2
time step continuity errors : sum local = 1.666738e-07, global = -3.0535871e-09, cumulative = 3.1639987e-06
ExecutionTime = 141.76 s  ClockTime = 142 s

scalarTransport execute: T
smoothSolver:  Solving for T, Initial residual = 0.00065142581, Final residual = 4.5143892e-05, No Iterations 5
scalarTransport: T: T is converged.
	initial-residual tolerance: 1
	outer iteration: 1

Time = 47

smoothSolver:  Solving for Ux, Initial residual = 0.0008223233, Final residual = 7.627499e-05, No Iterations 5
smoothSolver:  Solving for Uy, Initial residual = 0.0036280649, Final residual = 0.0003449533, No Iterations 5
smoothSolver:  Solving for Uz, Initial residual = 0.003102497, Final residual = 0.00027284417, No Iterations 5
GAMG:  Solving for p, Initial residual = 0.00027700022, Final residual = 4.5337489e-06, No Iterations 3
GAMG:  Solving for p, Initial residual = 8.5785677e-06, Final residual = 3.4971557e-07, No Iterations 3
GAMG:  Solving for p, Initial residual = 1.1248634e-06, Final residual = 6.2015584e-08, No Iterations 2
time step continuity errors : sum local = 1.5680474e-07, global = 4.6175595e-09, cumulative = 3.1686163e-06
ExecutionTime = 144.48 s  ClockTime = 145 s

scalarTransport execute: T
smoothSolver:  Solving for T, Initial residual = 0.0006155127, Final residual = 4.2464052e-05, No Iterations 5
scalarTransport: T: T is converged.
	initial-residual tolerance: 1
	outer iteration: 1

Time = 48

smoothSolver:  Solving for Ux, Initial residual = 0.00076645384, Final residual = 7.089703e-05, No Iterations 5
smoothSolver:  Solving for Uy, Initial residual = 0.0034104195, Final residual = 0.0003259754, No Iterations 5
smoothSolver:  Solving for Uz, Initial residual = 0.0028642612, Final residual = 0.0002498776, No Iterations 5
GAMG:  Solving for p, Initial residual = 0.00025555529, Final residual = 4.1461682e-06, No Iterations 3
GAMG:  Solving for p, Initial residual = 7.7755932e-06, Final residual = 3.2680616e-07, No Iterations 3
GAMG:  Solving for p, Initial residual = 1.0248842e-06, Final residual = 5.8391489e-08, No Iterations 2
time step continuity errors : sum local = 1.4796755e-07, global = 9.5329936e-09, cumulative = 3.1781493e-06
ExecutionTime = 147.2 s  ClockTime = 147 s

scalarTransport execute: T
smoothSolver:  Solving for T, Initial residual = 0.00058216478, Final residual = 3.9975206e-05, No Iterations 5
scalarTransport: T: T is converged.
	initial-residual tolerance: 1
	outer iteration: 1

Time = 49

smoothSolver:  Solving for Ux, Initial residual = 0.00071494775, Final residual = 6.5880024e-05, No Iterations 5
smoothSolver:  Solving for Uy, Initial residual = 0.0032184319, Final residual = 0.00030859785, No Iterations 5
smoothSolver:  Solving for Uz, Initial residual = 0.0026292543, Final residual = 0.00022792587, No Iterations 5
GAMG:  Solving for p, Initial residual = 0.00023505166, Final residual = 1.1670169e-05, No Iterations 2
GAMG:  Solving for p, Initial residual = 1.4574967e-05, Final residual = 6.3944332e-07, No Iterations 3
GAMG:  Solving for p, Initial residual = 1.3016663e-06, Final residual = 5.6842263e-08, No Iterations 3
time step continuity errors : sum local = 1.4434669e-07, global = 3.9686363e-08, cumulative = 3.2178357e-06
ExecutionTime = 149.87 s  ClockTime = 150 s

scalarTransport execute: T
smoothSolver:  Solving for T, Initial residual = 0.00055104027, Final residual = 3.7656075e-05, No Iterations 5
scalarTransport: T: T is converged.
	initial-residual tolerance: 1
	outer iteration: 1

Time = 50

smoothSolver:  Solving for Ux, Initial residual = 0.00066717169, Final residual = 6.1174805e-05, No Iterations 5
smoothSolver:  Solving for Uy, Initial residual = 0.0030482507, Final residual = 0.00029264347, No Iterations 5
smoothSolver:  Solving for Uz, Initial residual = 0.0024013769, Final residual = 0.00020727374, No Iterations 5
GAMG:  Solving for p, Initial residual = 0.00021559363, Final residual = 1.0647787e-05, No Iterations 2
GAMG:  Solving for p, Initial residual = 1.3260452e-05, Final residual = 5.7526149e-07, No Iterations 3
GAMG:  Solving for p, Initial residual = 1.1690409e-06, Final residual = 5.1824652e-08, No Iterations 3
time step continuity errors : sum local = 1.3187368e-07, global = 3.6268393e-08, cumulative = 3.2541041e-06
ExecutionTime = 152.55 s  ClockTime = 153 s

scalarTransport execute: T
smoothSolver:  Solving for T, Initial residual = 0.0005218225, Final residual = 3.5486716e-05, No Iterations 5
scalarTransport: T: T is converged.
	initial-residual tolerance: 1
	outer iteration: 1

volFieldValue peakTemperature write:
    max(region0) of T = 349.3284

Time = 51

smoothSolver:  Solving for Ux, Initial residual = 0.00062237968, Final residual = 5.6731749e-05, No Iterations 5
smoothSolver:  Solving for Uy, Initial residual = 0.0028969979, Final residual = 0.00027789394, No Iterations 5
smoothSolver:  Solving for Uz, Initial residual = 0.00218419, Final residual = 0.00018815752, No Iterations 5
GAMG:  Solving for p, Initial residual = 0.0001973169, Final residual = 9.7496738e-06, No Iterations 2
GAMG:  Solving for p, Initial residual = 1.2101e-05, Final residual = 5.142224e-07, No Iterations 3
GAMG:  Solving for p, Initial residual = 1.0478363e-06, Final residual = 4.6898682e-08, No Iterations 3
time step continuity errors : sum local = 1.1956983e-07, global = 3.2820493e-08, cumulative = 3.2869245e-06
ExecutionTime = 155.3 s  ClockTime = 155 s

scalarTransport execute: T
smoothSolver:  Solving for T, Initial residual = 0.00049422818, Final residual = 3.3447709e-05, No Iterations 5
scalarTransport: T: T is converged.
	initial-residual tolerance: 1
	outer iteration: 1

Time = 52

smoothSolver:  Solving for Ux, Initial residual = 0.00058000209, Final residual = 5.2521357e-05, No Iterations 5
smoothSolver:  Solving for Uy, Initial residual = 0.00276163, Final residual = 0.00026411069, No Iterations 5
smoothSolver:  Solving for Uz, Initial residual = 0.0019807448, Final residual = 0.00017074731, No Iterations 5
GAMG:  Solving for p, Initial residual = 0.00018028878, Final residual = 8.9787863e-06, No Iterations 2
GAMG:  Solving for p, Initial residual = 1.1097788e-05, Final residual = 4.5887798e-07, No Iterations 3
GAMG:  Solving for p, Initial residual = 9.4204386e-07, Final residual = 8.9721862e-08, No Iterations 2
time step continuity errors : sum local = 2.2916533e-07, global = -2.8734938e-08, cumulative = 3.2581896e-06
ExecutionTime = 158.06 s  ClockTime = 158 s

scalarTransport execute: T
smoothSolver:  Solving for T, Initial residual = 0.0004680084, Final residual = 3.1522435e-05, No Iterations 5
scalarTransport: T: T is converged.
	initial-residual tolerance: 1
	outer iteration: 1

Time = 53

smoothSolver:  Solving for Ux, Initial residual = 0.00053977713, Final residual = 4.854181e-05, No Iterations 5
smoothSolver:  Solving for Uy, Initial residual = 0.0026388201, Final residual = 0.00025104152, No Iterations 5
smoothSolver:  Solving for Uz, Initial residual = 0.0017933724, Final residual = 0.00015515377, No Iterations 5
GAMG:  Solving for p, Initial residual = 0.00016451007, Final residual = 2.5382513e-06, No Iterations 3
GAMG:  Solving for p, Initial residual = 4.6781107e-06, Final residual = 1.9566627e-07, No Iterations 3
GAMG:  Solving for p, Initial residual = 5.929796e-07, Final residual = 9.1825881e-08, No Iterations 1
time step continuity errors : sum local = 2.3494195e-07, global = -3.0948229e-09, cumulative = 3.2550948e-06
ExecutionTime = 161.04 s  ClockTime = 161 s

scalarTransport execute: T
smoothSolver:  Solving for T, Initial residual = 0.000442948, Final residual = 2.9697449e-05, No Iterations 5
scalarTransport: T: T is converged.
	initial-residual tolerance: 1
	outer iteration: 1

Time = 54

smoothSolver:  Solving for Ux, Initial residual = 0.00050155896, Final residual = 4.4795787e-05, No Iterations 5
smoothSolver:  Solving for Uy, Initial residual = 0.002525027, Final residual = 0.00023846317, No Iterations 5
smoothSolver:  Solving for Uz, Initial residual = 0.0016238692, Final residual = 0.00014143963, No Iterations 5
GAMG:  Solving for p, Initial residual = 0.0001499493, Final residual = 2.3171428e-06, No Iterations 3
GAMG:  Solving for p, Initial residual = 4.2479778e-06, Final residual = 1.7444688e-07, No Iterations 3
GAMG:  Solving for p, Initial residual = 5.3546128e-07, Final residual = 8.2643693e-08, No Iterations 1
time step continuity errors : sum local = 2.1178595e-07, global = -4.332784e-09, cumulative = 3.250762e-06
ExecutionTime = 164.35 s  ClockTime = 165 s

scalarTransport execute: T
smoothSolver:  Solving for T, Initial residual = 0.00041887358, Final residual = 2.7961336e-05, No Iterations 5
scalarTransport: T: T is converged.
	initial-residual tolerance: 1
	outer iteration: 1

Time = 55

smoothSolver:  Solving for Ux, Initial residual = 0.00046534882, Final residual = 4.1291816e-05, No Iterations 5
smoothSolver:  Solving for Uy, Initial residual = 0.0024163543, Final residual = 0.00022623188, No Iterations 5
smoothSolver:  Solving for Uz, Initial residual = 0.0014732973, Final residual = 0.00012956923, No Iterations 5
GAMG:  Solving for p, Initial residual = 0.00013689104, Final residual = 2.1198411e-06, No Iterations 3
GAMG:  Solving for p, Initial residual = 3.8635837e-06, Final residual = 1.5650949e-07, No Iterations 3
GAMG:  Solving for p, Initial residual = 4.8900935e-07, Final residual = 7.489703e-08, No Iterations 1
time step continuity errors : sum local = 1.9222089e-07, global = -5.5440275e-09, cumulative = 3.245218e-06
ExecutionTime = 167.57 s  ClockTime = 168 s

scalarTransport execute: T
smoothSolver:  Solving for T, Initial residual = 0.00039565288, Final residual = 2.630524e-05, No Iterations 5
scalarTransport: T: T is converged.
	initial-residual tolerance: 1
	outer iteration: 1

Time = 56

smoothSolver:  Solving for Ux, Initial residual = 0.00043111802, Final residual = 3.8021198e-05, No Iterations 5
smoothSolver:  Solving for Uy, Initial residual = 0.0023099504, Final residual = 0.00021425878, No Iterations 5
smoothSolver:  Solving for Uz, Initial residual = 0.0013421035, Final residual = 0.00011931317, No Iterations 5
GAMG:  Solving for p, Initial residual = 0.00012555106, Final residual = 1.9753292e-06, No Iterations 3
GAMG:  Solving for p, Initial residual = 3.5514239e-06, Final residual = 1.3875315e-07, No Iterations 3
GAMG:  Solving for p, Initial residual = 4.6101341e-07, Final residual = 6.8406001e-08, No Iterations 1
time step continuity errors : sum local = 1.758082e-07, global = -7.1276797e-09, cumulative = 3.2380903e-06
ExecutionTime = 170.89 s  ClockTime = 171 s

scalarTransport execute: T
smoothSolver:  Solving for T, Initial residual = 0.00037319058, Final residual = 2.4722577e-05, No Iterations 5
scalarTransport: T: T is converged.
	initial-residual tolerance: 1
	outer iteration: 1

Time = 57

smoothSolver:  Solving for Ux, Initial residual = 0.00039880504, Final residual = 3.497646e-05, No Iterations 5
smoothSolver:  Solving for Uy, Initial residual = 0.0022038252, Final residual = 0.00020245676, No Iterations 5
smoothSolver:  Solving for Uz, Initial residual = 0.0012302557, Final residual = 0.00011036077, No Iterations 5
GAMG:  Solving for p, Initial residual = 0.00011555184, Final residual = 1.850462e-06, No Iterations 3
GAMG:  Solving for p, Initial residual = 3.279359e-06, Final residual = 1.2781093e-07, No Iterations 3
GAMG:  Solving for p, Initial residual = 4.347878e-07, Final residual = 6.3434081e-08, No Iterations 1
time step continuity errors : sum local = 1.6324553e-07, global = -6.6867184e-09, cumulative = 3.2314036e-06
ExecutionTime = 174.09 s  ClockTime = 174 s

scalarTransport execute: T
smoothSolver:  Solving for T, Initial residual = 0.00035142607, Final residual = 2.3208398e-05, No Iterations 5
scalarTransport: T: T is converged.
	initial-residual tolerance: 1
	outer iteration: 1

Time = 58

smoothSolver:  Solving for Ux, Initial residual = 0.00036830703, Final residual = 3.2147754e-05, No Iterations 5
smoothSolver:  Solving for Uy, Initial residual = 0.0020969596, Final residual = 0.00019074984, No Iterations 5
smoothSolver:  Solving for Uz, Initial residual = 0.0011346576, Final residual = 0.00010243176, No Iterations 5
GAMG:  Solving for p, Initial residual = 0.00010663963, Final residual = 1.7451631e-06, No Iterations 3
GAMG:  Solving for p, Initial residual = 3.0433151e-06, Final residual = 1.2319617e-07, No Iterations 3
GAMG:  Solving for p, Initial residual = 4.108009e-07, Final residual = 5.9924451e-08, No Iterations 1
time step continuity errors : sum local = 1.5440631e-07, global = -4.9208621e-09, cumulative = 3.2264827e-06
ExecutionTime = 176.71 s  ClockTime = 177 s

scalarTransport execute: T
smoothSolver:  Solving for T, Initial residual = 0.00033032809, Final residual = 2.1759176e-05, No Iterations 5
scalarTransport: T: T is converged.
	initial-residual tolerance: 1
	outer iteration: 1

Time = 59

smoothSolver:  Solving for Ux, Initial residual = 0.00033959226, Final residual = 2.9525068e-05, No Iterations 5
smoothSolver:  Solving for Uy, Initial residual = 0.0019887317, Final residual = 0.0001790825, No Iterations 5
smoothSolver:  Solving for Uz, Initial residual = 0.0010514185, Final residual = 9.5341524e-05, No Iterations 5
GAMG:  Solving for p, Initial residual = 9.8628433e-05, Final residual = 1.688161e-06, No Iterations 3
GAMG:  Solving for p, Initial residual = 2.8720319e-06, Final residual = 1.1701089e-07, No Iterations 3
GAMG:  Solving for p, Initial residual = 3.9781432e-07, Final residual = 5.6770777e-08, No Iterations 1
time step continuity errors : sum local = 1.4645351e-07, global = -3.6553615e-09, cumulative = 3.2228273e-06
ExecutionTime = 179.37 s  ClockTime = 180 s

scalarTransport execute: T
smoothSolver:  Solving for T, Initial residual = 0.00030988952, Final residual = 2.0372496e-05, No Iterations 5
scalarTransport: T: T is converged.
	initial-residual tolerance: 1
	outer iteration: 1

Time = 60

smoothSolver:  Solving for Ux, Initial residual = 0.00031266799, Final residual = 2.7097915e-05, No Iterations 5
smoothSolver:  Solving for Uy, Initial residual = 0.0018788921, Final residual = 0.0001674622, No Iterations 5
smoothSolver:  Solving for Uz, Initial residual = 0.00097797102, Final residual = 8.8973491e-05, No Iterations 5
GAMG:  Solving for p, Initial residual = 9.136862e-05, Final residual = 1.6428561e-06, No Iterations 3
GAMG:  Solving for p, Initial residual = 2.725285e-06, Final residual = 1.1278843e-07, No Iterations 3
GAMG:  Solving for p, Initial residual = 3.8737637e-07, Final residual = 5.4348027e-08, No Iterations 1
time step continuity errors : sum local = 1.4036086e-07, global = -2.5967009e-09, cumulative = 3.2202306e-06
ExecutionTime = 181.99 s  ClockTime = 182 s

scalarTransport execute: T
smoothSolver:  Solving for T, Initial residual = 0.0002901209, Final residual = 1.9046776e-05, No Iterations 5
scalarTransport: T: T is converged.
	initial-residual tolerance: 1
	outer iteration: 1

Time = 61

smoothSolver:  Solving for Ux, Initial residual = 0.00028749139, Final residual = 2.4854354e-05, No Iterations 5
smoothSolver:  Solving for Uy, Initial residual = 0.0017674679, Final residual = 0.00015594609, No Iterations 5
smoothSolver:  Solving for Uz, Initial residual = 0.00091265785, Final residual = 8.3210264e-05, No Iterations 5
GAMG:  Solving for p, Initial residual = 8.4781998e-05, Final residual = 1.5985807e-06, No Iterations 3
GAMG:  Solving for p, Initial residual = 2.5891688e-06, Final residual = 1.0979157e-07, No Iterations 3
GAMG:  Solving for p, Initial residual = 3.7685252e-07, Final residual = 5.229187e-08, No Iterations 1
time step continuity errors : sum local = 1.3519434e-07, global = -1.7232693e-09, cumulative = 3.2185074e-06
ExecutionTime = 184.62 s  ClockTime = 185 s

scalarTransport execute: T
smoothSolver:  Solving for T, Initial residual = 0.00027104439, Final residual = 1.7781013e-05, No Iterations 5
scalarTransport: T: T is converged.
	initial-residual tolerance: 1
	outer iteration: 1

Time = 62

smoothSolver:  Solving for Ux, Initial residual = 0.0002639867, Final residual = 2.2785505e-05, No Iterations 5
smoothSolver:  Solving for Uy, Initial residual = 0.001654777, Final residual = 0.00014459976, No Iterations 5
smoothSolver:  Solving for Uz, Initial residual = 0.0008535423, Final residual = 7.7921383e-05, No Iterations 5
GAMG:  Solving for p, Initial residual = 7.8920669e-05, Final residual = 1.5013396e-06, No Iterations 3
GAMG:  Solving for p, Initial residual = 2.4056065e-06, Final residual = 1.123216e-07, No Iterations 3
GAMG:  Solving for p, Initial residual = 3.5856877e-07, Final residual = 5.1382349e-08, No Iterations 1
time step continuity errors : sum local = 1.3297724e-07, global = -1.0131498e-09, cumulative = 3.2174942e-06
ExecutionTime = 187.42 s  ClockTime = 188 s

scalarTransport execute: T
smoothSolver:  Solving for T, Initial residual = 0.00025268965, Final residual = 1.6574564e-05, No Iterations 5
scalarTransport: T: T is converged.
	initial-residual tolerance: 1
	outer iteration: 1

Time = 63

smoothSolver:  Solving for Ux, Initial residual = 0.00024211652, Final residual = 2.0885305e-05, No Iterations 5
smoothSolver:  Solving for Uy, Initial residual = 0.0015415031, Final residual = 0.00013350906, No Iterations 5
smoothSolver:  Solving for Uz, Initial residual = 0.0007993136, Final residual = 7.2948906e-05, No Iterations 5
GAMG:  Solving for p, Initial residual = 7.3773388e-05, Final residual = 1.4119313e-06, No Iterations 3
GAMG:  Solving for p, Initial residual = 2.2379686e-06, Final residual = 4.234684e-08, No Iterations 4
GAMG:  Solving for p, Initial residual = 2.7501566e-07, Final residual = 3.0211675e-08, No Iterations 1
time step continuity errors : sum local = 7.8262745e-08, global = 5.7634539e-09, cumulative = 3.2232577e-06
ExecutionTime = 190.59 s  ClockTime = 191 s

scalarTransport execute: T
smoothSolver:  Solving for T, Initial residual = 0.00023508931, Final residual = 1.5426972e-05, No Iterations 5
scalarTransport: T: T is converged.
	initial-residual tolerance: 1
	outer iteration: 1

Time = 64

smoothSolver:  Solving for Ux, Initial residual = 0.00022186606, Final residual = 1.9148007e-05, No Iterations 5
smoothSolver:  Solving for Uy, Initial residual = 0.0014288858, Final residual = 0.00012278181, No Iterations 5
smoothSolver:  Solving for Uz, Initial residual = 0.00074873186, Final residual = 6.814276e-05, No Iterations 5
GAMG:  Solving for p, Initial residual = 6.9188306e-05, Final residual = 1.3280048e-06, No Iterations 3
GAMG:  Solving for p, Initial residual = 2.0820308e-06, Final residual = 4.0787443e-08, No Iterations 4
GAMG:  Solving for p, Initial residual = 2.5011342e-07, Final residual = 2.812712e-08, No Iterations 1
time step continuity errors : sum local = 7.2929181e-08, global = 6.3934948e-09, cumulative = 3.2296512e-06
ExecutionTime = 193.76 s  ClockTime = 194 s

scalarTransport execute: T
smoothSolver:  Solving for T, Initial residual = 0.00021827513, Final residual = 1.4337807e-05, No Iterations 5
scalarTransport: T: T is converged.
	initial-residual tolerance: 1
	outer iteration: 1

Time = 65

smoothSolver:  Solving for Ux, Initial residual = 0.00020321687, Final residual = 1.7565186e-05, No Iterations 5
smoothSolver:  Solving for Uy, Initial residual = 0.0013182378, Final residual = 0.00011250723, No Iterations 5
smoothSolver:  Solving for Uz, Initial residual = 0.00070037769, Final residual = 6.3394112e-05, No Iterations 5
GAMG:  Solving for p, Initial residual = 6.5130996e-05, Final residual = 1.2696845e-06, No Iterations 3
GAMG:  Solving for p, Initial residual = 1.9565249e-06, Final residual = 3.8713185e-08, No Iterations 4
GAMG:  Solving for p, Initial residual = 2.2363273e-07, Final residual = 2.5981601e-08, No Iterations 1
time step continuity errors : sum local = 6.7424313e-08, global = 6.4486975e-09, cumulative = 3.2360999e-06
ExecutionTime = 196.98 s  ClockTime = 197 s

scalarTransport execute: T
smoothSolver:  Solving for T, Initial residual = 0.00020227558, Final residual = 1.330657e-05, No Iterations 5
scalarTransport: T: T is converged.
	initial-residual tolerance: 1
	outer iteration: 1

Time = 66

smoothSolver:  Solving for Ux, Initial residual = 0.00018611897, Final residual = 1.6127005e-05, No Iterations 5
smoothSolver:  Solving for Uy, Initial residual = 0.0012108467, Final residual = 0.00010276526, No Iterations 5
smoothSolver:  Solving for Uz, Initial residual = 0.00065310322, Final residual = 5.864064e-05, No Iterations 5
GAMG:  Solving for p, Initial residual = 6.1570099e-05, Final residual = 1.2235957e-06, No Iterations 3
GAMG:  Solving for p, Initial residual = 1.8493924e-06, Final residual = 3.5896536e-08, No Iterations 4
GAMG:  Solving for p, Initial residual = 1.9896822e-07, Final residual = 2.3720824e-08, No Iterations 1
time step continuity errors : sum local = 6.1607462e-08, global = 5.9762668e-09, cumulative = 3.2420761e-06
ExecutionTime = 200.36 s  ClockTime = 201 s

scalarTransport execute: T
smoothSolver:  Solving for T, Initial residual = 0.00018711266, Final residual = 1.2332583e-05, No Iterations 5
scalarTransport: T: T is converged.
	initial-residual tolerance: 1
	outer iteration: 1

Time = 67

smoothSolver:  Solving for Ux, Initial residual = 0.00017050528, Final residual = 1.4823451e-05, No Iterations 5
smoothSolver:  Solving for Uy, Initial residual = 0.0011077977, Final residual = 9.3612408e-05, No Iterations 5
smoothSolver:  Solving for Uz, Initial residual = 0.00060619519, Final residual = 5.3870239e-05, No Iterations 5
GAMG:  Solving for p, Initial residual = 5.8305261e-05, Final residual = 1.1653554e-06, No Iterations 3
GAMG:  Solving for p, Initial residual = 1.7360175e-06, Final residual = 9.2714928e-08, No Iterations 3
GAMG:  Solving for p, Initial residual = 2.326861e-07, Final residual = 3.7276714e-08, No Iterations 1
time step continuity errors : sum local = 9.6888456e-08, global = -2.1777461e-10, cumulative = 3.2418584e-06
ExecutionTime = 203.29 s  ClockTime = 204 s

scalarTransport execute: T
smoothSolver:  Solving for T, Initial residual = 0.00017280092, Final residual = 1.1414957e-05, No Iterations 5
scalarTransport: T: T is converged.
	initial-residual tolerance: 1
	outer iteration: 1

Time = 68

smoothSolver:  Solving for Ux, Initial residual = 0.00015629981, Final residual = 1.3644232e-05, No Iterations 5
smoothSolver:  Solving for Uy, Initial residual = 0.0010099627, Final residual = 8.5086452e-05, No Iterations 5
smoothSolver:  Solving for Uz, Initial residual = 0.00055933656, Final residual = 4.9110945e-05, No Iterations 5
GAMG:  Solving for p, Initial residual = 5.5211159e-05, Final residual = 1.0865202e-06, No Iterations 3
GAMG:  Solving for p, Initial residual = 1.6075946e-06, Final residual = 8.3970459e-08, No Iterations 3
GAMG:  Solving for p, Initial residual = 2.102247e-07, Final residual = 3.3704472e-08, No Iterations 1
time step continuity errors : sum local = 8.7665738e-08, global = 1.4443974e-10, cumulative = 3.2420028e-06
ExecutionTime = 206.33 s  ClockTime = 207 s

scalarTransport execute: T
smoothSolver:  Solving for T, Initial residual = 0.0001593469, Final residual = 1.0552591e-05, No Iterations 5
scalarTransport: T: T is converged.
	initial-residual tolerance: 1
	outer iteration: 1

Time = 69

smoothSolver:  Solving for Ux, Initial residual = 0.00014341906, Final residual = 1.2579136e-05, No Iterations 5
smoothSolver:  Solving for Uy, Initial residual = 0.00091806237, Final residual = 7.7214964e-05, No Iterations 5
smoothSolver:  Solving for Uz, Initial residual = 0.00051259922, Final residual = 4.4418678e-05, No Iterations 5
GAMG:  Solving for p, Initial residual = 5.2202937e-05, Final residual = 9.9072774e-07, No Iterations 3
GAMG:  Solving for p, Initial residual = 1.4678299e-06, Final residual = 7.4752494e-08, No Iterations 3
GAMG:  Solving for p, Initial residual = 1.9048994e-07, Final residual = 3.0046974e-08, No Iterations 1
time step continuity errors : sum local = 7.82038e-08, global = 6.7962029e-10, cumulative = 3.2426824e-06
ExecutionTime = 208.94 s  ClockTime = 209 s

scalarTransport execute: T
smoothSolver:  Solving for T, Initial residual = 0.00014674762, Final residual = 9.7441178e-06, No Iterations 5
scalarTransport: T: T is converged.
	initial-residual tolerance: 1
	outer iteration: 1

Time = 70

smoothSolver:  Solving for Ux, Initial residual = 0.00013177062, Final residual = 1.1618032e-05, No Iterations 5
smoothSolver:  Solving for Uy, Initial residual = 0.0008325241, Final residual = 7.0000228e-05, No Iterations 5
smoothSolver:  Solving for Uz, Initial residual = 0.00046633902, Final residual = 3.9866863e-05, No Iterations 5
GAMG:  Solving for p, Initial residual = 4.9279496e-05, Final residual = 8.8918574e-07, No Iterations 3
GAMG:  Solving for p, Initial residual = 1.3265549e-06, Final residual = 6.5784323e-08, No Iterations 3
GAMG:  Solving for p, Initial residual = 1.7275173e-07, Final residual = 2.6649347e-08, No Iterations 1
time step continuity errors : sum local = 6.9402508e-08, global = 1.2075338e-09, cumulative = 3.24389e-06
ExecutionTime = 211.56 s  ClockTime = 212 s

scalarTransport execute: T
smoothSolver:  Solving for T, Initial residual = 0.0001349924, Final residual = 8.987945e-06, No Iterations 5
scalarTransport: T: T is converged.
	initial-residual tolerance: 1
	outer iteration: 1

Time = 71

smoothSolver:  Solving for Ux, Initial residual = 0.00012125976, Final residual = 1.0750873e-05, No Iterations 5
smoothSolver:  Solving for Uy, Initial residual = 0.0007536369, Final residual = 6.3436637e-05, No Iterations 5
smoothSolver:  Solving for Uz, Initial residual = 0.00042107108, Final residual = 3.5519707e-05, No Iterations 5
GAMG:  Solving for p, Initial residual = 4.6422863e-05, Final residual = 7.9020996e-07, No Iterations 3
GAMG:  Solving for p, Initial residual = 1.1914223e-06, Final residual = 5.7399324e-08, No Iterations 3
GAMG:  Solving for p, Initial residual = 1.5631055e-07, Final residual = 2.3535915e-08, No Iterations 1
time step continuity errors : sum local = 6.1327891e-08, global = 1.6817357e-09, cumulative = 3.2455717e-06
ExecutionTime = 214.25 s  ClockTime = 215 s

scalarTransport execute: T
smoothSolver:  Solving for T, Initial residual = 0.00012406248, Final residual = 8.2822919e-06, No Iterations 5
scalarTransport: T: T is converged.
	initial-residual tolerance: 1
	outer iteration: 1

Time = 72

smoothSolver:  Solving for Ux, Initial residual = 0.00011178907, Final residual = 9.9676447e-06, No Iterations 5
smoothSolver:  Solving for Uy, Initial residual = 0.00068149544, Final residual = 5.7505711e-05, No Iterations 5
smoothSolver:  Solving for Uz, Initial residual = 0.00037742987, Final residual = 3.1428589e-05, No Iterations 5
GAMG:  Solving for p, Initial residual = 4.3638684e-05, Final residual = 6.997672e-07, No Iterations 3
GAMG:  Solving for p, Initial residual = 1.0678114e-06, Final residual = 4.9851436e-08, No Iterations 3
GAMG:  Solving for p, Initial residual = 1.4082438e-07, Final residual = 2.0738132e-08, No Iterations 1
time step continuity errors : sum local = 5.4064515e-08, global = 2.0560008e-09, cumulative = 3.2476277e-06
ExecutionTime = 216.84 s  ClockTime = 217 s

scalarTransport execute: T
smoothSolver:  Solving for T, Initial residual = 0.00011393228, Final residual = 7.6251843e-06, No Iterations 5
scalarTransport: T: T is converged.
	initial-residual tolerance: 1
	outer iteration: 1

Time = 73

smoothSolver:  Solving for Ux, Initial residual = 0.0001032639, Final residual = 9.2590093e-06, No Iterations 5
smoothSolver:  Solving for Uy, Initial residual = 0.00061604278, Final residual = 5.2179263e-05, No Iterations 5
smoothSolver:  Solving for Uz, Initial residual = 0.00033596492, Final residual = 2.7630975e-05, No Iterations 5
GAMG:  Solving for p, Initial residual = 4.0949123e-05, Final residual = 6.2027065e-07, No Iterations 3
GAMG:  Solving for p, Initial residual = 9.5773934e-07, Final residual = 9.8621117e-08, No Iterations 2
GAMG:  Solving for p, Initial residual = 1.6997306e-07, Final residual = 4.5728741e-08, No Iterations 1
time step continuity errors : sum local = 1.1926796e-07, global = 2.6946239e-08, cumulative = 3.2745739e-06
ExecutionTime = 219.76 s  ClockTime = 220 s

scalarTransport execute: T
smoothSolver:  Solving for T, Initial residual = 0.00010457016, Final residual = 7.014507e-06, No Iterations 5
scalarTransport: T: T is converged.
	initial-residual tolerance: 1
	outer iteration: 1

Time = 74

smoothSolver:  Solving for Ux, Initial residual = 9.5587518e-05, Final residual = 8.6164127e-06, No Iterations 5
smoothSolver:  Solving for Uy, Initial residual = 0.0005570864, Final residual = 4.7420963e-05, No Iterations 5
smoothSolver:  Solving for Uz, Initial residual = 0.00029711175, Final residual = 2.4151113e-05, No Iterations 5
GAMG:  Solving for p, Initial residual = 3.8355939e-05, Final residual = 1.8785612e-06, No Iterations 2
GAMG:  Solving for p, Initial residual = 2.1653902e-06, Final residual = 8.4522366e-08, No Iterations 3
GAMG:  Solving for p, Initial residual = 1.7212648e-07, Final residual = 4.0166093e-08, No Iterations 1
time step continuity errors : sum local = 1.0480155e-07, global = 2.2399076e-08, cumulative = 3.296973e-06
ExecutionTime = 222.8 s  ClockTime = 223 s

scalarTransport execute: T
smoothSolver:  Solving for T, Initial residual = 9.5940042e-05, Final residual = 6.4480429e-06, No Iterations 5
scalarTransport: T: T is converged.
	initial-residual tolerance: 1
	outer iteration: 1

Time = 75

[...]
scalarTransport: T: T is converged.
	initial-residual tolerance: 1
	outer iteration: 1

Time = 81

smoothSolver:  Solving for Ux, Initial residual = 5.8666704e-05, Final residual = 5.4034485e-06, No Iterations 5
smoothSolver:  Solving for Uy, Initial residual = 0.0002940565, Final residual = 2.6332131e-05, No Iterations 5
smoothSolver:  Solving for Uz, Initial residual = 0.00011136923, Final residual = 8.7317264e-06, No Iterations 5
GAMG:  Solving for p, Initial residual = 2.3232358e-05, Final residual = 9.0473982e-07, No Iterations 2
GAMG:  Solving for p, Initial residual = 1.058907e-06, Final residual = 3.563625e-08, No Iterations 3
GAMG:  Solving for p, Initial residual = 7.7275291e-08, Final residual = 7.7275291e-08, No Iterations 0
time step continuity errors : sum local = 2.0198088e-07, global = -4.9504266e-09, cumulative = 3.3353797e-06
ExecutionTime = 242.75 s  ClockTime = 243 s

scalarTransport execute: T
smoothSolver:  Solving for T, Initial residual = 5.2520512e-05, Final residual = 3.5259469e-06, No Iterations 5
scalarTransport: T: T is converged.
	initial-residual tolerance: 1
	outer iteration: 1

Time = 82

smoothSolver:  Solving for Ux, Initial residual = 5.5010552e-05, Final residual = 5.0688952e-06, No Iterations 5
smoothSolver:  Solving for Uy, Initial residual = 0.00027226021, Final residual = 2.4535948e-05, No Iterations 5
smoothSolver:  Solving for Uz, Initial residual = 9.6434513e-05, Final residual = 7.6119736e-06, No Iterations 5
GAMG:  Solving for p, Initial residual = 2.1542205e-05, Final residual = 8.2964235e-07, No Iterations 2
GAMG:  Solving for p, Initial residual = 9.7164061e-07, Final residual = 3.1662223e-08, No Iterations 3
GAMG:  Solving for p, Initial residual = 6.9604695e-08, Final residual = 6.9604695e-08, No Iterations 0
time step continuity errors : sum local = 1.8195803e-07, global = -3.8753178e-09, cumulative = 3.3315044e-06
ExecutionTime = 245.22 s  ClockTime = 245 s

scalarTransport execute: T
smoothSolver:  Solving for T, Initial residual = 4.8242381e-05, Final residual = 3.2305502e-06, No Iterations 5
scalarTransport: T: T is converged.
	initial-residual tolerance: 1
	outer iteration: 1

Time = 83

smoothSolver:  Solving for Ux, Initial residual = 5.1616871e-05, Final residual = 4.7555043e-06, No Iterations 5
smoothSolver:  Solving for Uy, Initial residual = 0.00025303137, Final residual = 2.2928505e-05, No Iterations 5
smoothSolver:  Solving for Uz, Initial residual = 8.3795118e-05, Final residual = 6.687317e-06, No Iterations 5
GAMG:  Solving for p, Initial residual = 1.9970098e-05, Final residual = 7.6592779e-07, No Iterations 2
GAMG:  Solving for p, Initial residual = 8.9680032e-07, Final residual = 9.3708999e-08, No Iterations 2
GAMG:  Solving for p, Initial residual = 1.2601612e-07, Final residual = 2.9258048e-08, No Iterations 1
time step continuity errors : sum local = 7.6495147e-08, global = -2.9247507e-09, cumulative = 3.3285797e-06
ExecutionTime = 247.79 s  ClockTime = 248 s

scalarTransport execute: T
smoothSolver:  Solving for T, Initial residual = 4.4330189e-05, Final residual = 2.9594383e-06, No Iterations 5
scalarTransport: T: T is converged.
	initial-residual tolerance: 1
	outer iteration: 1

Time = 84

smoothSolver:  Solving for Ux, Initial residual = 4.8453687e-05, Final residual = 4.4612216e-06, No Iterations 5
smoothSolver:  Solving for Uy, Initial residual = 0.00023599214, Final residual = 2.1481133e-05, No Iterations 5
smoothSolver:  Solving for Uz, Initial residual = 7.3204684e-05, Final residual = 5.9316849e-06, No Iterations 5
GAMG:  Solving for p, Initial residual = 1.8513318e-05, Final residual = 7.1167351e-07, No Iterations 2
GAMG:  Solving for p, Initial residual = 8.3200853e-07, Final residual = 8.4688289e-08, No Iterations 2
GAMG:  Solving for p, Initial residual = 1.1441428e-07, Final residual = 2.654319e-08, No Iterations 1
time step continuity errors : sum local = 6.9405077e-08, global = -2.499995e-09, cumulative = 3.3260797e-06
ExecutionTime = 250.42 s  ClockTime = 251 s

scalarTransport execute: T
smoothSolver:  Solving for T, Initial residual = 4.0751109e-05, Final residual = 2.7107501e-06, No Iterations 5
scalarTransport: T: T is converged.
	initial-residual tolerance: 1
	outer iteration: 1

Time = 85

smoothSolver:  Solving for Ux, Initial residual = 4.5493732e-05, Final residual = 4.1843504e-06, No Iterations 5
smoothSolver:  Solving for Uy, Initial residual = 0.00022079751, Final residual = 2.0168552e-05, No Iterations 5
smoothSolver:  Solving for Uz, Initial residual = 6.4415532e-05, Final residual = 5.3197057e-06, No Iterations 5
GAMG:  Solving for p, Initial residual = 1.7167768e-05, Final residual = 6.6568708e-07, No Iterations 2
GAMG:  Solving for p, Initial residual = 7.765194e-07, Final residual = 7.7297346e-08, No Iterations 2
GAMG:  Solving for p, Initial residual = 1.0469662e-07, Final residual = 2.4349526e-08, No Iterations 1
time step continuity errors : sum local = 6.367558e-08, global = -2.4401029e-09, cumulative = 3.3236396e-06
ExecutionTime = 253.4 s  ClockTime = 254 s

scalarTransport execute: T
smoothSolver:  Solving for T, Initial residual = 3.7475105e-05, Final residual = 2.4827626e-06, No Iterations 5
scalarTransport: T: T is converged.
	initial-residual tolerance: 1
	outer iteration: 1

Time = 86

smoothSolver:  Solving for Ux, Initial residual = 4.2715651e-05, Final residual = 3.9234713e-06, No Iterations 5
smoothSolver:  Solving for Uy, Initial residual = 0.00020714942, Final residual = 1.8969204e-05, No Iterations 5
smoothSolver:  Solving for Uz, Initial residual = 5.719559e-05, Final residual = 4.8278568e-06, No Iterations 5
GAMG:  Solving for p, Initial residual = 1.5928254e-05, Final residual = 6.2563369e-07, No Iterations 2
GAMG:  Solving for p, Initial residual = 7.2768389e-07, Final residual = 7.1390524e-08, No Iterations 2
GAMG:  Solving for p, Initial residual = 9.6740372e-08, Final residual = 9.6740372e-08, No Iterations 0
time step continuity errors : sum local = 2.5300544e-07, global = 2.7371846e-08, cumulative = 3.3510114e-06
ExecutionTime = 256.31 s  ClockTime = 257 s

scalarTransport execute: T
smoothSolver:  Solving for T, Initial residual = 3.4474772e-05, Final residual = 2.2738391e-06, No Iterations 5
scalarTransport: T: T is converged.
	initial-residual tolerance: 1
	outer iteration: 1

Time = 87

smoothSolver:  Solving for Ux, Initial residual = 4.0102846e-05, Final residual = 3.6775111e-06, No Iterations 5
smoothSolver:  Solving for Uy, Initial residual = 0.00019478547, Final residual = 1.7863977e-05, No Iterations 5
smoothSolver:  Solving for Uz, Initial residual = 5.1333087e-05, Final residual = 4.4347681e-06, No Iterations 5
GAMG:  Solving for p, Initial residual = 1.4792188e-05, Final residual = 5.852837e-07, No Iterations 2
GAMG:  Solving for p, Initial residual = 6.7923855e-07, Final residual = 6.5086329e-08, No Iterations 2
GAMG:  Solving for p, Initial residual = 8.8716887e-08, Final residual = 8.8716887e-08, No Iterations 0
time step continuity errors : sum local = 2.3204074e-07, global = 1.2657594e-08, cumulative = 3.363669e-06
ExecutionTime = 259.23 s  ClockTime = 260 s

scalarTransport execute: T
smoothSolver:  Solving for T, Initial residual = 3.172497e-05, Final residual = 2.082481e-06, No Iterations 5
scalarTransport: T: T is converged.
	initial-residual tolerance: 1
	outer iteration: 1

Time = 88

smoothSolver:  Solving for Ux, Initial residual = 3.7638756e-05, Final residual = 3.4452694e-06, No Iterations 5
smoothSolver:  Solving for Uy, Initial residual = 0.00018351381, Final residual = 1.6841957e-05, No Iterations 5
smoothSolver:  Solving for Uz, Initial residual = 4.659319e-05, Final residual = 4.1164784e-06, No Iterations 5
GAMG:  Solving for p, Initial residual = 1.3742514e-05, Final residual = 5.5135058e-07, No Iterations 2
GAMG:  Solving for p, Initial residual = 6.3794074e-07, Final residual = 6.1099067e-08, No Iterations 2
GAMG:  Solving for p, Initial residual = 8.297304e-08, Final residual = 8.297304e-08, No Iterations 0
time step continuity errors : sum local = 2.1703385e-07, global = 1.9562354e-09, cumulative = 3.3656252e-06
ExecutionTime = 262.24 s  ClockTime = 263 s

scalarTransport execute: T
smoothSolver:  Solving for T, Initial residual = 2.9202954e-05, Final residual = 1.9072484e-06, No Iterations 5
scalarTransport: T: T is converged.
	initial-residual tolerance: 1
	outer iteration: 1

Time = 89

smoothSolver:  Solving for Ux, Initial residual = 3.5312285e-05, Final residual = 3.2260231e-06, No Iterations 5
smoothSolver:  Solving for Uy, Initial residual = 0.00017310558, Final residual = 1.5885646e-05, No Iterations 5
smoothSolver:  Solving for Uz, Initial residual = 4.2784739e-05, Final residual = 3.8548036e-06, No Iterations 5
GAMG:  Solving for p, Initial residual = 1.2781569e-05, Final residual = 5.2114732e-07, No Iterations 2
GAMG:  Solving for p, Initial residual = 6.0093266e-07, Final residual = 5.7346644e-08, No Iterations 2
GAMG:  Solving for p, Initial residual = 7.7574687e-08, Final residual = 7.7574687e-08, No Iterations 0
time step continuity errors : sum local = 2.0292713e-07, global = -1.119315e-08, cumulative = 3.3544321e-06
ExecutionTime = 264.68 s  ClockTime = 265 s

scalarTransport execute: T
smoothSolver:  Solving for T, Initial residual = 2.6888251e-05, Final residual = 1.7468217e-06, No Iterations 5
scalarTransport: T: T is converged.
	initial-residual tolerance: 1
	outer iteration: 1

Time = 90

smoothSolver:  Solving for Ux, Initial residual = 3.3114068e-05, Final residual = 3.0190726e-06, No Iterations 5
smoothSolver:  Solving for Uy, Initial residual = 0.00016343471, Final residual = 1.4987399e-05, No Iterations 5
smoothSolver:  Solving for Uz, Initial residual = 3.9715993e-05, Final residual = 3.6344672e-06, No Iterations 5
GAMG:  Solving for p, Initial residual = 1.1900359e-05, Final residual = 4.9272233e-07, No Iterations 2
GAMG:  Solving for p, Initial residual = 5.6617225e-07, Final residual = 5.3020963e-08, No Iterations 2
GAMG:  Solving for p, Initial residual = 7.1582539e-08, Final residual = 7.1582539e-08, No Iterations 0
time step continuity errors : sum local = 1.87264e-07, global = -2.1170174e-08, cumulative = 3.3332619e-06
ExecutionTime = 267.12 s  ClockTime = 268 s

scalarTransport execute: T
smoothSolver:  Solving for T, Initial residual = 2.4762377e-05, Final residual = 1.5999766e-06, No Iterations 5
scalarTransport: T: T is converged.
	initial-residual tolerance: 1
	outer iteration: 1

Time = 91

smoothSolver:  Solving for Ux, Initial residual = 3.103599e-05, Final residual = 2.8237913e-06, No Iterations 5
smoothSolver:  Solving for Uy, Initial residual = 0.00015438132, Final residual = 1.4139548e-05, No Iterations 5
smoothSolver:  Solving for Uz, Initial residual = 3.7198554e-05, Final residual = 3.4443879e-06, No Iterations 5
GAMG:  Solving for p, Initial residual = 1.1092832e-05, Final residual = 4.6628791e-07, No Iterations 2
GAMG:  Solving for p, Initial residual = 5.3380089e-07, Final residual = 4.7963808e-08, No Iterations 2
GAMG:  Solving for p, Initial residual = 6.4900229e-08, Final residual = 6.4900229e-08, No Iterations 0
time step continuity errors : sum local = 1.6979246e-07, global = -2.7794003e-08, cumulative = 3.3054679e-06
ExecutionTime = 269.57 s  ClockTime = 270 s

scalarTransport execute: T
smoothSolver:  Solving for T, Initial residual = 2.2808716e-05, Final residual = 1.4655826e-06, No Iterations 5
scalarTransport: T: T is converged.
	initial-residual tolerance: 1
	outer iteration: 1

Time = 92

smoothSolver:  Solving for Ux, Initial residual = 2.9071315e-05, Final residual = 2.6396208e-06, No Iterations 5
smoothSolver:  Solving for Uy, Initial residual = 0.00014585417, Final residual = 1.333643e-05, No Iterations 5
smoothSolver:  Solving for Uz, Initial residual = 3.5086938e-05, Final residual = 3.2760463e-06, No Iterations 5
GAMG:  Solving for p, Initial residual = 1.035209e-05, Final residual = 4.4138529e-07, No Iterations 2
GAMG:  Solving for p, Initial residual = 5.0337252e-07, Final residual = 4.2996596e-08, No Iterations 2
GAMG:  Solving for p, Initial residual = 5.8430202e-08, Final residual = 5.8430202e-08, No Iterations 0
time step continuity errors : sum local = 1.5287366e-07, global = -3.0393579e-08, cumulative = 3.2750743e-06
ExecutionTime = 272.04 s  ClockTime = 273 s

scalarTransport execute: T
smoothSolver:  Solving for T, Initial residual = 2.1012316e-05, Final residual = 1.3425967e-06, No Iterations 5
scalarTransport: T: T is converged.
	initial-residual tolerance: 1
	outer iteration: 1

Time = 93

smoothSolver:  Solving for Ux, Initial residual = 2.7214212e-05, Final residual = 2.4660565e-06, No Iterations 5
smoothSolver:  Solving for Uy, Initial residual = 0.00013778329, Final residual = 1.2573762e-05, No Iterations 5
smoothSolver:  Solving for Uz, Initial residual = 3.3266767e-05, Final residual = 3.122781e-06, No Iterations 5
GAMG:  Solving for p, Initial residual = 9.6713921e-06, Final residual = 4.1723027e-07, No Iterations 2
GAMG:  Solving for p, Initial residual = 4.7412746e-07, Final residual = 3.8712392e-08, No Iterations 2
GAMG:  Solving for p, Initial residual = 5.2749271e-08, Final residual = 5.2749271e-08, No Iterations 0
time step continuity errors : sum local = 1.3801718e-07, global = -3.0211038e-08, cumulative = 3.2448633e-06
ExecutionTime = 274.49 s  ClockTime = 275 s

scalarTransport execute: T
smoothSolver:  Solving for T, Initial residual = 1.9359705e-05, Final residual = 1.2300571e-06, No Iterations 5
scalarTransport: T: T is converged.
	initial-residual tolerance: 1
	outer iteration: 1

Time = 94

smoothSolver:  Solving for Ux, Initial residual = 2.5459676e-05, Final residual = 2.3026162e-06, No Iterations 5
smoothSolver:  Solving for Uy, Initial residual = 0.00013011403, Final residual = 1.1848144e-05, No Iterations 5
smoothSolver:  Solving for Uz, Initial residual = 3.1650313e-05, Final residual = 2.9796018e-06, No Iterations 5
GAMG:  Solving for p, Initial residual = 9.0453452e-06, Final residual = 3.9345573e-07, No Iterations 2
GAMG:  Solving for p, Initial residual = 4.457228e-07, Final residual = 3.531294e-08, No Iterations 2
GAMG:  Solving for p, Initial residual = 4.8154117e-08, Final residual = 4.8154117e-08, No Iterations 0
time step continuity errors : sum local = 1.2599984e-07, global = -2.8341607e-08, cumulative = 3.2165217e-06
ExecutionTime = 276.98 s  ClockTime = 278 s

scalarTransport execute: T
smoothSolver:  Solving for T, Initial residual = 1.7838723e-05, Final residual = 1.1270778e-06, No Iterations 5
scalarTransport: T: T is converged.
	initial-residual tolerance: 1
	outer iteration: 1

Time = 95

smoothSolver:  Solving for Ux, Initial residual = 2.3803257e-05, Final residual = 2.1488532e-06, No Iterations 5
smoothSolver:  Solving for Uy, Initial residual = 0.00012280548, Final residual = 1.1156975e-05, No Iterations 5
smoothSolver:  Solving for Uz, Initial residual = 3.0169582e-05, Final residual = 2.8430908e-06, No Iterations 5
GAMG:  Solving for p, Initial residual = 8.4673916e-06, Final residual = 3.6990602e-07, No Iterations 2
GAMG:  Solving for p, Initial residual = 4.1797734e-07, Final residual = 3.2824739e-08, No Iterations 2
GAMG:  Solving for p, Initial residual = 4.4544544e-08, Final residual = 4.4544544e-08, No Iterations 0
time step continuity errors : sum local = 1.1656002e-07, global = -2.6250301e-08, cumulative = 3.1902714e-06
ExecutionTime = 279.73 s  ClockTime = 280 s

scalarTransport execute: T
smoothSolver:  Solving for T, Initial residual = 1.643839e-05, Final residual = 1.0328462e-06, No Iterations 5
scalarTransport: T: T is converged.
	initial-residual tolerance: 1
	outer iteration: 1

Time = 96

smoothSolver:  Solving for Ux, Initial residual = 2.2240824e-05, Final residual = 2.0043489e-06, No Iterations 5
smoothSolver:  Solving for Uy, Initial residual = 0.00011582796, Final residual = 1.049835e-05, No Iterations 5
smoothSolver:  Solving for Uz, Initial residual = 2.8779109e-05, Final residual = 2.7111985e-06, No Iterations 5
GAMG:  Solving for p, Initial residual = 7.9323644e-06, Final residual = 3.4674767e-07, No Iterations 2
GAMG:  Solving for p, Initial residual = 3.9092598e-07, Final residual = 9.8262229e-08, No Iterations 1
GAMG:  Solving for p, Initial residual = 1.0692341e-07, Final residual = 3.0885216e-08, No Iterations 1
time step continuity errors : sum local = 8.082072e-08, global = -2.4221968e-08, cumulative = 3.1660494e-06
ExecutionTime = 282.62 s  ClockTime = 283 s

scalarTransport execute: T
smoothSolver:  Solving for T, Initial residual = 1.5148761e-05, Final residual = 9.4661755e-07, No Iterations 5
scalarTransport: T: T is converged.
	initial-residual tolerance: 1
	outer iteration: 1

Time = 97

smoothSolver:  Solving for Ux, Initial residual = 2.0768526e-05, Final residual = 1.8686754e-06, No Iterations 5
smoothSolver:  Solving for Uy, Initial residual = 0.00010915882, Final residual = 9.8706574e-06, No Iterations 5
smoothSolver:  Solving for Uz, Initial residual = 2.7447585e-05, Final residual = 2.5826577e-06, No Iterations 5
GAMG:  Solving for p, Initial residual = 7.4365009e-06, Final residual = 3.2437171e-07, No Iterations 2
GAMG:  Solving for p, Initial residual = 3.6489988e-07, Final residual = 9.2666569e-08, No Iterations 1
GAMG:  Solving for p, Initial residual = 1.0058231e-07, Final residual = 2.9071046e-08, No Iterations 1
time step continuity errors : sum local = 7.6076198e-08, global = -2.2394429e-08, cumulative = 3.143655e-06
ExecutionTime = 285.54 s  ClockTime = 286 s

scalarTransport execute: T
smoothSolver:  Solving for T, Initial residual = 1.3960733e-05, Final residual = 8.6769791e-07, No Iterations 5
scalarTransport: T: T is converged.
	initial-residual tolerance: 1
	outer iteration: 1

Time = 98

smoothSolver:  Solving for Ux, Initial residual = 1.9382512e-05, Final residual = 1.7414096e-06, No Iterations 5
smoothSolver:  Solving for Uy, Initial residual = 0.00010278194, Final residual = 9.2727174e-06, No Iterations 5
smoothSolver:  Solving for Uz, Initial residual = 2.6151064e-05, Final residual = 2.4565286e-06, No Iterations 5
GAMG:  Solving for p, Initial residual = 6.9757106e-06, Final residual = 3.0312856e-07, No Iterations 2
GAMG:  Solving for p, Initial residual = 3.4038464e-07, Final residual = 8.7394425e-08, No Iterations 1
GAMG:  Solving for p, Initial residual = 9.4625696e-08, Final residual = 9.4625696e-08, No Iterations 0
time step continuity errors : sum local = 2.4763511e-07, global = 3.5907988e-08, cumulative = 3.179563e-06
ExecutionTime = 288.43 s  ClockTime = 289 s

scalarTransport execute: T
smoothSolver:  Solving for T, Initial residual = 1.2865559e-05, Final residual = 7.9543801e-07, No Iterations 5
scalarTransport: T: T is converged.
	initial-residual tolerance: 1
	outer iteration: 1

Time = 99

smoothSolver:  Solving for Ux, Initial residual = 1.8077085e-05, Final residual = 1.6219698e-06, No Iterations 5
smoothSolver:  Solving for Uy, Initial residual = 9.6626099e-05, Final residual = 8.6990541e-06, No Iterations 5
smoothSolver:  Solving for Uz, Initial residual = 2.4885994e-05, Final residual = 2.3336344e-06, No Iterations 5
GAMG:  Solving for p, Initial residual = 6.584422e-06, Final residual = 2.9612417e-07, No Iterations 2
GAMG:  Solving for p, Initial residual = 3.3067632e-07, Final residual = 9.0947137e-08, No Iterations 1
GAMG:  Solving for p, Initial residual = 9.7550181e-08, Final residual = 9.7550181e-08, No Iterations 0
time step continuity errors : sum local = 2.5529667e-07, global = 5.1826263e-08, cumulative = 3.2313892e-06
ExecutionTime = 291.3 s  ClockTime = 292 s


SIMPLE solution converged in 99 iterations

scalarTransport execute: T
smoothSolver:  Solving for T, Initial residual = 1.185654e-05, Final residual = 7.2929931e-07, No Iterations 5
scalarTransport: T: T is converged.
	initial-residual tolerance: 1
	outer iteration: 1

scalarTransport write: T
	T

End

