/*---------------------------------------------------------------------------*\
| =========                 |                                                 |
| \\      /  F ield         | OpenFOAM: The Open Source CFD Toolbox           |
|  \\    /   O peration     | Version:  2412                                  |
|   \\  /    A nd           | Website:  www.openfoam.com                      |
|    \\/     M anipulation  |                                                 |
\*---------------------------------------------------------------------------*/
Build  : _b8cf4d35-20260127 OPENFOAM=2412 patch=260127 version=2412
Arch   : "LSB;label=32;scalar=64"
Exec   : snappyHexMesh -overwrite
Date   : Jun 17 2026
Time   : 01:23:58
Host   : LAPTOP-8OT81PN8
PID    : 1245
I/O    : uncollated
Case   : /home/saidul/OpenFOAM/run/openfoam_yt_tutorials/plateFinHeatSink/plateFinHeatExchanger
nProcs : 1
trapFpe: Floating point exception trapping enabled (FOAM_SIGFPE).
fileModificationChecking : Monitoring run-time modified files using timeStampMaster (fileModificationSkew 5, maxFileModificationPolls 20)
allowSystemOperations : Allowing user-supplied system call operations

// * * * * * * * * * * * * * * * * * * * * * * * * * * * * * * * * * * * * * //
Create time

Create mesh for time = 0

Read mesh in = 0.02 s

Overall mesh bounding box  : (-40 -20 -260) (40 140 260)
Relative tolerance         : 1e-06
Absolute matching distance : 0.000549909

Reading refinement surfaces.
Read refinement surfaces in = 0.01 s

Reading refinement shells.
Refinement level 2 for all cells inside box1
Read refinement shells in = 0 s

Setting refinement level of surface to be consistent with shells.
For geometry fluid detected 8 uncached triangles out of 36
For geometry interface_fluidToFins detected 0 uncached triangles out of 218
Checked shell refinement in = 0 s

Reading features.
Read features in = 0 s


Determining initial surface intersections
-----------------------------------------

Edge intersection testing:
    Number of edges             : 104240
    Number of edges to retest   : 0
    Number of intersected edges : 0
Edge intersection testing:
    Number of edges             : 104240
    Number of edges to retest   : 104240
    Number of intersected edges : 7362
Calculated surface intersections in = 0.15 s

Initial mesh : cells:33600  faces:104240  points:37149
Cells per refinement level:
    0	33600
Setting refinement level of surface to be consistent with curvature.
Checked curvature refinement in = 0 s


Adding patches for surface regions
----------------------------------

Patch Type                Region                        
----- ----                ------                        
fluid:

1     patch               inlet_fluid                   
2     patch               outlet_fluid                  
3     wall                walls_fluid                   
4     wall                walls_heater                  
5     wall                base_fins                     

interface_heaterToFins:

6     wall                interface_heaterToFins        
7     wall                interface_heaterToFins_slave  

interface_fluidToFins:

8     wall                interface_fluidToFins         
9     wall                interface_fluidToFins_slave   

Added patches in = 0 s

Edge intersection testing:
    Number of edges             : 104240
    Number of edges to retest   : 0
    Number of intersected edges : 7362
Decomposition method none [1]

Refinement phase
----------------

Found point (1 10 1) in cell 16910 on processor 0

Surface refinement iteration 0
------------------------------

Marked for refinement due to surface intersection          : 833 cells.
Marked for refinement due to curvature/regions             : 0 cells.
Determined cells to refine in = 0.04 s
Selected for refinement : 833 cells (out of 33600)
Edge intersection testing:
    Number of edges             : 122861
    Number of edges to retest   : 23304
    Number of intersected edges : 10070
Refined mesh in = 0.12 s
After refinement surface refinement iteration 0 : cells:39431  faces:122861  points:44149
Cells per refinement level:
    0	32767
    1	6664

Surface refinement iteration 1
------------------------------

Marked for refinement due to surface intersection          : 3912 cells.
Marked for refinement due to curvature/regions             : 0 cells.
Determined cells to refine in = 0.01 s
Selected for refinement : 3955 cells (out of 39431)
Edge intersection testing:
    Number of edges             : 210146
    Number of edges to retest   : 107015
    Number of intersected edges : 22793
Refined mesh in = 0.32 s
After refinement surface refinement iteration 1 : cells:67116  faces:210146  points:76101
Cells per refinement level:
    0	32626
    1	3978
    2	30512

Surface refinement iteration 2
------------------------------

Marked for refinement due to surface intersection          : 454 cells.
Marked for refinement due to curvature/regions             : 14268 cells.
Determined cells to refine in = 0.06 s
Selected for refinement : 14918 cells (out of 67116)
Edge intersection testing:
    Number of edges             : 534059
    Number of edges to retest   : 391784
    Number of intersected edges : 69249
Refined mesh in = 1.05 s
After refinement surface refinement iteration 2 : cells:171542  faces:534059  points:191366
Cells per refinement level:
    0	32526
    1	4228
    2	20644
    3	114144

Surface refinement iteration 3
------------------------------

Marked for refinement due to surface intersection          : 4 cells.
Marked for refinement due to curvature/regions             : 1200 cells.
Determined cells to refine in = 0.18 s
Selected for refinement : 1316 cells (out of 171542)
Edge intersection testing:
    Number of edges             : 562211
    Number of edges to retest   : 66188
    Number of intersected edges : 71809
Refined mesh in = 0.66 s
After refinement surface refinement iteration 3 : cells:180754  faces:562211  points:201074
Cells per refinement level:
    0	32526
    1	4112
    2	20372
    3	123744

Surface refinement iteration 4
------------------------------

Marked for refinement due to surface intersection          : 0 cells.
Marked for refinement due to curvature/regions             : 328 cells.
Determined cells to refine in = 0.19 s
Selected for refinement : 492 cells (out of 180754)
Edge intersection testing:
    Number of edges             : 573071
    Number of edges to retest   : 24804
    Number of intersected edges : 71559
Refined mesh in = 0.63 s
After refinement surface refinement iteration 4 : cells:184198  faces:573071  points:205042
Cells per refinement level:
    0	32510
    1	4092
    2	21228
    3	126368

Surface refinement iteration 5
------------------------------

Marked for refinement due to surface intersection          : 0 cells.
Marked for refinement due to curvature/regions             : 0 cells.
Determined cells to refine in = 0.19 s
Selected for refinement : 0 cells (out of 184198)
Stopping refining since too few cells selected.


Removing mesh beyond surface intersections
------------------------------------------

Setting cellZones according to locationsInMesh:
Location : (1 10 1)
    cellZone : none

For cellZone none found point (1 10 1) in global region 5 out of 67 regions.
Found 2 named surfaces with a provided inside point. Assigning cells inside these surfaces to the corresponding cellZone.

For cellZone heater found point (0.01 -10 0.01) in global region 45 out of 1006 regions.
For cellZone fins found point (0.01 0.001 0.001) in global region 37 out of 1006 regions.
Walking from known cellZones; crossing a faceZone face changes cellZone

--> FOAM Warning : 
    From void Foam::meshRefinement::nearestFace(const Foam::labelUList&, const Foam::bitSet&, Foam::autoPtr<Foam::mapDistribute>&, Foam::labelList&, Foam::label) const
    in file meshRefinement/meshRefinement.C at line 527
    Did not visit some faces, e.g. face 10341 at (-12 34.2857 -203.667)
Keeping all cells containing inside points
Selected for keeping : 176884 cells.
Edge intersection testing:
    Number of edges             : 551086
    Number of edges to retest   : 5495
    Number of intersected edges : 71559

Shell refinement iteration 0
----------------------------

Marked for refinement due to distance to explicit features : 0 cells.
Marked for refinement due to refinement shells             : 2230 cells.
Determined cells to refine in = 0.93 s
Selected for internal refinement : 4742 cells (out of 176884)
Edge intersection testing:
    Number of edges             : 651094
    Number of edges to retest   : 213353
    Number of intersected edges : 71809
Refined mesh in = 0.85 s
After refinement shell refinement iteration 0 : cells:210078  faces:651094  points:231259
Cells per refinement level:
    0	28360
    1	4146
    2	31780
    3	145792

Shell refinement iteration 1
----------------------------

Marked for refinement due to distance to explicit features : 0 cells.
Marked for refinement due to refinement shells             : 1637 cells.
Determined cells to refine in = 0.09 s
Selected for internal refinement : 1649 cells (out of 210078)
Edge intersection testing:
    Number of edges             : 686152
    Number of edges to retest   : 59361
    Number of intersected edges : 71809
Refined mesh in = 0.8 s
After refinement shell refinement iteration 1 : cells:221621  faces:686152  points:243232
Cells per refinement level:
    0	28328
    1	2785
    2	44716
    3	145792

Shell refinement iteration 2
----------------------------

Marked for refinement due to distance to explicit features : 0 cells.
Marked for refinement due to refinement shells             : 99 cells.
Determined cells to refine in = 0.11 s
Selected for internal refinement : 99 cells (out of 221621)
Edge intersection testing:
    Number of edges             : 688021
    Number of edges to retest   : 7303
    Number of intersected edges : 71809
Refined mesh in = 0.74 s
After refinement shell refinement iteration 2 : cells:222314  faces:688021  points:243728
Cells per refinement level:
    0	28328
    1	2686
    2	45508
    3	145792

Shell refinement iteration 3
----------------------------

Marked for refinement due to distance to explicit features : 0 cells.
Marked for refinement due to refinement shells             : 0 cells.
Determined cells to refine in = 0.1 s
Selected for internal refinement : 0 cells (out of 222314)
Stopping refining since too few cells selected.


Dangling coarse cells refinement iteration 0
--------------------------------------------

Determined cells to refine in = 0.01 s
Selected for refinement : 0 cells (out of 222314)
Stopping refining since too few cells selected.


Dangling coarse cells refinement iteration 0
--------------------------------------------

Determined cells to refine in = 0.01 s
Selected for refinement : 0 cells (out of 222314)
Stopping refining since too few cells selected.


Refinement transition refinement iteration 0
--------------------------------------------

Determined cells to refine in = 0.01 s
Selected for refinement : 2 cells (out of 222314)
Edge intersection testing:
    Number of edges             : 688063
    Number of edges to retest   : 184
    Number of intersected edges : 71813
Refined mesh in = 0.72 s
After refinement interface cell refinement iteration 0 : cells:222328  faces:688063  points:243740
Cells per refinement level:
    0	28326
    1	2702
    2	45508
    3	145792

Refinement transition refinement iteration 1
--------------------------------------------

Determined cells to refine in = 0.01 s
Selected for refinement : 0 cells (out of 222328)
Stopping refining since too few cells selected.


Splitting mesh at surface intersections
---------------------------------------

Introducing baffles for 71813 faces that are intersected by the surface.

Setting cellZones according to locationsInMesh:
Location : (1 10 1)
    cellZone : none

For cellZone none found point (1 10 1) in global region 5 out of 63 regions.
Found 2 named surfaces with a provided inside point. Assigning cells inside these surfaces to the corresponding cellZone.

For cellZone heater found point (0.01 -10 0.01) in global region 42 out of 1002 regions.
For cellZone fins found point (0.01 0.001 0.001) in global region 36 out of 1002 regions.
Walking from known cellZones; crossing a faceZone face changes cellZone

Edge intersection testing:
    Number of edges             : 697623
    Number of edges to retest   : 69176
    Number of intersected edges : 81021
Created baffles in = 0.74 s


After introducing baffles : cells:222328  faces:697623  points:243740
Cells per refinement level:
    0	28326
    1	2702
    2	45508
    3	145792

Introducing baffles to block off problem cells
----------------------------------------------

markFacesOnProblemCells : marked 11222 additional internal faces to be converted into baffles.
Analyzed problem cells in = 0.34 s


Introducing baffles to delete problem cells.

Edge intersection testing:
    Number of edges             : 708845
    Number of edges to retest   : 35652
    Number of intersected edges : 81600
Created baffles in = 0.42 s


After introducing baffles : cells:222328  faces:708845  points:243740
Cells per refinement level:
    0	28326
    1	2702
    2	45508
    3	145792
Setting cellZones according to locationsInMesh:
Location : (1 10 1)
    cellZone : none

For cellZone none found point (1 10 1) in global region 37 out of 5647 regions.
Found 2 named surfaces with a provided inside point. Assigning cells inside these surfaces to the corresponding cellZone.

For cellZone heater found point (0.01 -10 0.01) in global region 1448 out of 6586 regions.
For cellZone fins found point (0.01 0.001 0.001) in global region 1365 out of 6586 regions.
Walking from known cellZones; crossing a faceZone face changes cellZone

Edge intersection testing:
    Number of edges             : 708845
    Number of edges to retest   : 79566
    Number of intersected edges : 81600

Remove unreachable sections of mesh
-----------------------------------

Keeping all cells containing points 1((1 10 1))
Selected for keeping : 212870 cells.
Edge intersection testing:
    Number of edges             : 658641
    Number of edges to retest   : 0
    Number of intersected edges : 70319
Split mesh in = 1.24 s


After subsetting : cells:212870  faces:658641  points:233210
Cells per refinement level:
    0	21837
    1	2337
    2	42968
    3	145728

Introducing zones for interfaces
--------------------------------

Setting cellZones according to named surfaces:
Surface : interface_heaterToFins
    faceZones : 1(interface_heaterToFins)
    cellZone  : heater
Surface : interface_fluidToFins
    faceZones : 1(interface_fluidToFins)
    cellZone  : fins

Setting cellZones according to locationsInMesh:
Location : (1 10 1)
    cellZone : none

For cellZone none found point (1 10 1) in global region 0 out of 1 regions.
Found 2 named surfaces with a provided inside point. Assigning cells inside these surfaces to the corresponding cellZone.

For cellZone heater found point (0.01 -10 0.01) in global region 7 out of 940 regions.
For cellZone fins found point (0.01 0.001 0.001) in global region 1 out of 940 regions.
Walking from known cellZones; crossing a faceZone face changes cellZone

Setting faceZones according to neighbouring cellZones:

Detected 10968 free-standing zone faces
Protected from visiting 5439 non-manifold edges

Split 10968 free-standing zone faces into 2843 disconnected regions with size (negative denotes wrong orientation) :
    0	10
    1	-1
    2	25
    3	-1
    4	14
    5	456
    6	6
    7	2
    8	0
    9	541
    10	-6
    11	-3
    12	-9
    13	3
    14	6
    15	-1
    16	-1
    17	1
    18	-3
    19	-4
    20	-1
    21	38
    22	-1
    23	-1
    24	-1
    25	6
    26	0
    27	0
    28	1
    29	1
    30	3
    31	0
    32	-1
    33	-1
    34	2
    35	0
    36	0
    37	8
    38	17
    39	0
    40	25
    41	-3
    42	0
    43	11
    44	121
    45	1
    46	-1
    47	1
    48	-1
    49	26
    50	1
    51	10
    52	0
    53	4
    54	428
    55	24
    56	1
    57	-2
    58	2
    59	1
    60	4
    61	-4
    62	1
    63	-2
    64	-2
    65	2
    66	-2
    67	0
    68	-2
    69	-1
    70	1
    71	0
    72	3
    73	0
    74	1
    75	-1
    76	-1
    77	1
    78	-1
    79	1
    80	0
    81	-4
    82	-1
    83	0
    84	-1
    85	3
    86	1
    87	-1
    88	1
    89	-2
    90	0
    91	1
    92	1
    93	-1
    94	1
    95	0
    96	21
    97	1
    98	55
    99	2
    100	1
    101	1
    102	-1
    103	-1
    104	0
    105	-1
    106	0
    107	0
    108	1
    109	1
    110	1
    111	1
    112	1
    113	0
    114	1
    115	1
    116	1
    117	0
    118	1
    119	29
    120	2
    121	25
    122	0
    123	-2
    124	1
    125	-2
    126	-3
    127	0
    128	6
    129	10
    130	-1
    131	1
    132	2
    133	13
    134	10
    135	-2
    136	-1
    137	-1
    138	1
    139	1
    140	-1
    141	69
    142	1
    143	1
    144	-1
    145	2
    146	7
    147	5
    148	3
    149	1
    150	0
    151	-1
    152	242
    153	-2
    154	4
    155	-4
    156	19
    157	2
    158	-2
    159	11
    160	-1
    161	-1
    162	-1
    163	1
    164	1
    165	1
    166	1
    167	1
    168	0
    169	1
    170	1
    171	0
    172	5
    173	1
    174	1
    175	4
    176	0
    177	18
    178	6
    179	3
    180	17
    181	1
    182	0
    183	-1
    184	-1
    185	-1
    186	2
    187	-5
    188	-1
    189	-1
    190	1
    191	9
    192	4
    193	1
    194	-1
    195	1
    196	1
    197	0
    198	-4
    199	3
    200	0
    201	3
    202	-1
    203	3
    204	-2
    205	5
    206	-1
    207	3
    208	4
    209	1
    210	0
    211	11
    212	2
    213	1
    214	2
    215	-2
    216	0
    217	2
    218	-3
    219	2
    220	1
    221	-1
    222	-1
    223	-2
    224	1
    225	-1
    226	-3
    227	1
    228	-1
    229	0
    230	-2
    231	0
    232	0
    233	-4
    234	2
    235	-1
    236	2
    237	1
    238	-1
    239	-1
    240	3
    241	2
    242	1
    243	2
    244	1
    245	1
    246	9
    247	-1
    248	-2
    249	2
    250	1
    251	-2
    252	1
    253	2
    254	1
    255	4
    256	0
    257	-1
    258	0
    259	0
    260	7
    261	-1
    262	-1
    263	0
    264	1
    265	2
    266	2
    267	-4
    268	2
    269	-1
    270	1
    271	2
    272	-4
    273	-1
    274	-2
    275	-2
    276	-1
    277	-1
    278	1
    279	2
    280	2
    281	-1
    282	-1
    283	1
    284	1
    285	-1
    286	-6
    287	2
    288	2
    289	1
    290	6
    291	-1
    292	5
    293	-1
    294	2
    295	2
    296	3
    297	0
    298	-1
    299	1
    300	-1
    301	-3
    302	1
    303	1
    304	-1
    305	-1
    306	2
    307	-1
    308	-2
    309	1
    310	-1
    311	1
    312	-1
    313	1
    314	-4
    315	-2
    316	1
    317	1
    318	-1
    319	-1
    320	11
    321	1
    322	1
    323	8
    324	0
    325	3
    326	-1
    327	2
    328	-1
    329	-1
    330	5
    331	-1
    332	-1
    333	-1
    334	1
    335	0
    336	1
    337	-7
    338	14
    339	-2
    340	-2
    341	2
    342	-1
    343	-1
    344	-1
    345	-1
    346	1
    347	1
    348	0
    349	-3
    350	1
    351	3
    352	-2
    353	-1
    354	1
    355	1
    356	2
    357	2
    358	1
    359	-1
    360	2
    361	-2
    362	5
    363	0
    364	4
    365	-2
    366	-2
    367	8
    368	1
    369	0
    370	1
    371	0
    372	-5
    373	3
    374	0
    375	2
    376	1
    377	0
    378	0
    379	1
    380	3
    381	1
    382	-2
    383	0
    384	2
    385	-1
    386	0
    387	0
    388	-2
    389	1
    390	1
    391	0
    392	2
    393	0
    394	-2
    395	2
    396	-3
    397	1
    398	3
    399	-1
    400	-3
    401	-2
    402	1
    403	0
    404	-1
    405	1
    406	0
    407	1
    408	-1
    409	1
    410	-1
    411	-1
    412	-2
    413	0
    414	-1
    415	-2
    416	1
    417	1
    418	1
    419	0
    420	-3
    421	2
    422	-2
    423	7
    424	-2
    425	0
    426	-1
    427	-1
    428	-1
    429	-2
    430	1
    431	-2
    432	5
    433	1
    434	1
    435	1
    436	-1
    437	-1
    438	2
    439	-1
    440	-1
    441	4
    442	-2
    443	1
    444	-1
    445	-1
    446	1
    447	1
    448	1
    449	1
    450	-1
    451	-2
    452	5
    453	-1
    454	1
    455	-1
    456	1
    457	1
    458	-1
    459	1
    460	-1
    461	1
    462	2
    463	0
    464	1
    465	0
    466	3
    467	3
    468	0
    469	1
    470	2
    471	2
    472	1
    473	7
    474	0
    475	-2
    476	1
    477	4
    478	2
    479	-3
    480	-1
    481	28
    482	1
    483	-1
    484	1
    485	-2
    486	-2
    487	-1
    488	3
    489	-3
    490	0
    491	0
    492	-3
    493	4
    494	-3
    495	0
    496	6
    497	-1
    498	4
    499	2
    500	-1
    501	1
    502	1
    503	1
    504	2
    505	-1
    506	0
    507	1
    508	1
    509	-1
    510	4
    511	-5
    512	1
    513	6
    514	0
    515	-3
    516	3
    517	3
    518	5
    519	-1
    520	1
    521	-1
    522	-1
    523	-1
    524	5
    525	1
    526	0
    527	-2
    528	1
    529	-1
    530	1
    531	2
    532	-7
    533	1
    534	5
    535	-1
    536	-1
    537	-1
    538	1
    539	0
    540	-1
    541	-1
    542	1
    543	0
    544	-1
    545	1
    546	1
    547	1
    548	-4
    549	-2
    550	1
    551	1
    552	-1
    553	10
    554	0
    555	-1
    556	1
    557	-1
    558	-1
    559	-2
    560	1
    561	1
    562	42
    563	-3
    564	3
    565	2
    566	1
    567	1
    568	0
    569	1
    570	-1
    571	-1
    572	-1
    573	1
    574	-4
    575	11
    576	-1
    577	1
    578	-1
    579	1
    580	1
    581	-1
    582	4
    583	-1
    584	1
    585	1
    586	0
    587	-1
    588	-4
    589	1
    590	1
    591	3
    592	3
    593	2
    594	14
    595	2
    596	-1
    597	2
    598	2
    599	0
    600	1
    601	-4
    602	0
    603	-3
    604	10
    605	-5
    606	-1
    607	1
    608	-1
    609	1
    610	-4
    611	0
    612	1
    613	1
    614	1
    615	1
    616	-2
    617	4
    618	-1
    619	-1
    620	-1
    621	1
    622	-1
    623	1
    624	-1
    625	1
    626	3
    627	2
    628	2
    629	-8
    630	17
    631	-2
    632	-1
    633	18
    634	7
    635	-1
    636	-1
    637	2
    638	3
    639	-1
    640	-1
    641	2
    642	-2
    643	-1
    644	1
    645	1
    646	1
    647	1
    648	-1
    649	-1
    650	0
    651	2
    652	-1
    653	1
    654	-1
    655	-1
    656	1
    657	1
    658	-2
    659	3
    660	1
    661	-2
    662	1
    663	2
    664	2
    665	1
    666	-2
    667	1
    668	5
    669	0
    670	18
    671	-1
    672	1
    673	-1
    674	3
    675	-6
    676	10
    677	0
    678	4
    679	1
    680	-2
    681	1
    682	-1
    683	2
    684	-2
    685	1
    686	-2
    687	-1
    688	2
    689	1197
    690	2
    691	-1
    692	-2
    693	1
    694	-6
    695	-1
    696	-2
    697	5
    698	-1
    699	1
    700	-1
    701	-1
    702	-1
    703	0
    704	5
    705	3
    706	5
    707	-1
    708	-3
    709	-1
    710	1
    711	-1
    712	1
    713	5
    714	1
    715	1
    716	-4
    717	1
    718	1
    719	-4
    720	1
    721	3
    722	-1
    723	1
    724	1
    725	-2
    726	2
    727	7
    728	0
    729	0
    730	5
    731	4
    732	1
    733	1
    734	0
    735	1
    736	-2
    737	0
    738	1
    739	-4
    740	2
    741	2
    742	1
    743	-2
    744	4
    745	34
    746	-1
    747	0
    748	1
    749	-2
    750	1
    751	-1
    752	-2
    753	1
    754	-1
    755	0
    756	-1
    757	1
    758	1
    759	1
    760	1
    761	1
    762	-1
    763	-1
    764	-2
    765	-1
    766	2
    767	-1
    768	1
    769	2
    770	-1
    771	1
    772	3
    773	3
    774	2
    775	1
    776	-1
    777	1
    778	-4
    779	0
    780	2
    781	-3
    782	1
    783	3
    784	-2
    785	0
    786	-1
    787	-3
    788	1
    789	2
    790	-2
    791	-1
    792	-2
    793	1
    794	-2
    795	1
    796	-1
    797	0
    798	1
    799	-1
    800	1
    801	-2
    802	-2
    803	6
    804	3
    805	-1
    806	1
    807	9
    808	-1
    809	1
    810	-1
    811	-2
    812	20
    813	-1
    814	2
    815	1
    816	3
    817	4
    818	-2
    819	14
    820	-2
    821	3
    822	0
    823	7
    824	2
    825	-2
    826	925
    827	-1
    828	-2
    829	-3
    830	3
    831	-1
    832	2
    833	1
    834	-1
    835	-1
    836	-2
    837	-2
    838	-5
    839	0
    840	3
    841	-3
    842	1
    843	1
    844	0
    845	1
    846	0
    847	2
    848	-1
    849	1
    850	3
    851	5
    852	6
    853	-1
    854	-1
    855	1
    856	-1
    857	0
    858	1
    859	2
    860	1
    861	1
    862	1
    863	-2
    864	0
    865	1
    866	1
    867	2
    868	-2
    869	-2
    870	1
    871	-3
    872	0
    873	-2
    874	-2
    875	4
    876	2
    877	0
    878	-4
    879	1
    880	-1
    881	1
    882	-2
    883	-5
    884	-1
    885	1
    886	-2
    887	-1
    888	1
    889	-1
    890	-1
    891	0
    892	0
    893	1
    894	-2
    895	1
    896	-1
    897	-1
    898	1
    899	-2
    900	1
    901	1
    902	-1
    903	0
    904	6
    905	6
    906	-5
    907	0
    908	-2
    909	-1
    910	2
    911	3
    912	0
    913	-2
    914	1
    915	0
    916	0
    917	-2
    918	-2
    919	0
    920	4
    921	1
    922	0
    923	-1
    924	-1
    925	1
    926	1
    927	-1
    928	1
    929	-2
    930	-1
    931	-1
    932	1
    933	-2
    934	4
    935	1
    936	-1
    937	1
    938	-1
    939	1
    940	-1
    941	6
    942	-1
    943	1
    944	-1
    945	1
    946	1
    947	7
    948	-3
    949	9
    950	-1
    951	2
    952	2
    953	3
    954	1
    955	-1
    956	-1
    957	1
    958	-1
    959	-2
    960	2
    961	2
    962	0
    963	1
    964	1
    965	2
    966	4
    967	2
    968	10
    969	-4
    970	2
    971	-1
    972	1
    973	-1
    974	1
    975	1
    976	1
    977	1
    978	1
    979	0
    980	-6
    981	-2
    982	3
    983	1
    984	2
    985	5
    986	1
    987	1
    988	2
    989	2
    990	-1
    991	1
    992	-1
    993	-1
    994	-1
    995	0
    996	-1
    997	-1
    998	1
    999	0
    1000	4
    1001	1
    1002	0
    1003	-2
    1004	0
    1005	0
    1006	2
    1007	-1
    1008	0
    1009	-2
    1010	1
    1011	1
    1012	1
    1013	0
    1014	7
    1015	2
    1016	-1
    1017	1
    1018	1
    1019	-1
    1020	1
    1021	-3
    1022	1
    1023	-2
    1024	6
    1025	1
    1026	2
    1027	1
    1028	1
    1029	0
    1030	-1
    1031	-7
    1032	-3
    1033	1
    1034	0
    1035	2
    1036	0
    1037	-2
    1038	0
    1039	-2
    1040	1
    1041	1
    1042	-1
    1043	-1
    1044	-1
    1045	2
    1046	1
    1047	-1
    1048	1
    1049	-1
    1050	1
    1051	1
    1052	2
    1053	2
    1054	0
    1055	-1
    1056	-2
    1057	-3
    1058	-1
    1059	-1
    1060	-1
    1061	1
    1062	-1
    1063	-1
    1064	1
    1065	2
    1066	1
    1067	-2
    1068	2
    1069	4
    1070	0
    1071	1
    1072	1
    1073	-1
    1074	1
    1075	0
    1076	-1
    1077	1
    1078	-1
    1079	1
    1080	0
    1081	-3
    1082	0
    1083	2
    1084	12
    1085	-1
    1086	1
    1087	1
    1088	1
    1089	1
    1090	1
    1091	1
    1092	0
    1093	0
    1094	-1
    1095	-1
    1096	1
    1097	1
    1098	4
    1099	-1
    1100	1
    1101	3
    1102	1
    1103	2
    1104	1
    1105	-1
    1106	2
    1107	1
    1108	1
    1109	1
    1110	-1
    1111	-1
    1112	1
    1113	-1
    1114	1
    1115	3
    1116	-1
    1117	0
    1118	15
    1119	-1
    1120	-7
    1121	0
    1122	11
    1123	-1
    1124	0
    1125	2
    1126	1
    1127	0
    1128	1
    1129	0
    1130	-1
    1131	2
    1132	2
    1133	-1
    1134	1
    1135	1
    1136	-1
    1137	1
    1138	-2
    1139	1
    1140	1
    1141	2
    1142	-3
    1143	-3
    1144	0
    1145	0
    1146	-1
    1147	0
    1148	2
    1149	4
    1150	0
    1151	-1
    1152	1
    1153	-1
    1154	-3
    1155	-1
    1156	0
    1157	-2
    1158	2
    1159	-1
    1160	1
    1161	2
    1162	1
    1163	3
    1164	0
    1165	-1
    1166	1
    1167	-1
    1168	-2
    1169	1
    1170	1
    1171	2
    1172	-1
    1173	-3
    1174	0
    1175	3
    1176	1
    1177	-1
    1178	1
    1179	1
    1180	-1
    1181	1
    1182	-1
    1183	1
    1184	1
    1185	-1
    1186	1
    1187	-1
    1188	-1
    1189	1
    1190	1
    1191	1
    1192	-2
    1193	1
    1194	-5
    1195	-1
    1196	3
    1197	21
    1198	-1
    1199	-2
    1200	-2
    1201	3
    1202	1
    1203	0
    1204	3
    1205	1
    1206	1
    1207	2
    1208	-2
    1209	1
    1210	-1
    1211	-3
    1212	2
    1213	1
    1214	-3
    1215	-1
    1216	-2
    1217	-4
    1218	0
    1219	-2
    1220	0
    1221	-1
    1222	1
    1223	2
    1224	1
    1225	-3
    1226	-1
    1227	-1
    1228	-1
    1229	2
    1230	-1
    1231	-2
    1232	-1
    1233	1
    1234	1
    1235	1
    1236	9
    1237	-1
    1238	2
    1239	0
    1240	1
    1241	-1
    1242	0
    1243	1
    1244	1
    1245	1
    1246	-2
    1247	-1
    1248	3
    1249	5
    1250	-5
    1251	9
    1252	-4
    1253	6
    1254	0
    1255	0
    1256	1
    1257	2
    1258	-2
    1259	2
    1260	-1
    1261	-1
    1262	-1
    1263	1
    1264	3
    1265	-1
    1266	0
    1267	0
    1268	1
    1269	-1
    1270	-1
    1271	0
    1272	-2
    1273	-1
    1274	1
    1275	1
    1276	1
    1277	-1
    1278	-1
    1279	0
    1280	0
    1281	-2
    1282	-1
    1283	2
    1284	0
    1285	-1
    1286	5
    1287	5
    1288	1
    1289	1
    1290	1
    1291	1
    1292	-1
    1293	1
    1294	2
    1295	-1
    1296	1
    1297	1
    1298	1
    1299	-1
    1300	-1
    1301	1
    1302	0
    1303	1
    1304	-3
    1305	-1
    1306	-2
    1307	1
    1308	-1
    1309	0
    1310	-1
    1311	1
    1312	-1
    1313	2
    1314	-1
    1315	-1
    1316	-1
    1317	1
    1318	1
    1319	1
    1320	11
    1321	-1
    1322	-2
    1323	51
    1324	-4
    1325	1
    1326	-1
    1327	2
    1328	-2
    1329	11
    1330	0
    1331	1
    1332	-1
    1333	2
    1334	1
    1335	-1
    1336	-1
    1337	-1
    1338	1
    1339	1
    1340	1
    1341	0
    1342	1
    1343	0
    1344	2
    1345	3
    1346	4
    1347	2
    1348	1
    1349	-4
    1350	-8
    1351	-2
    1352	-2
    1353	0
    1354	1
    1355	1
    1356	1
    1357	1
    1358	1
    1359	1
    1360	5
    1361	-1
    1362	-2
    1363	-2
    1364	-1
    1365	-1
    1366	1
    1367	-1
    1368	2
    1369	1
    1370	2
    1371	-1
    1372	3
    1373	1
    1374	-1
    1375	-1
    1376	1
    1377	1
    1378	1
    1379	1
    1380	1
    1381	-1
    1382	1
    1383	0
    1384	-1
    1385	-3
    1386	6
    1387	-1
    1388	0
    1389	9
    1390	-2
    1391	1
    1392	0
    1393	4
    1394	-2
    1395	-1
    1396	-1
    1397	0
    1398	-2
    1399	-1
    1400	2
    1401	1
    1402	-1
    1403	2
    1404	-4
    1405	1
    1406	-3
    1407	-1
    1408	-1
    1409	2
    1410	1
    1411	-2
    1412	1
    1413	0
    1414	1
    1415	1
    1416	-2
    1417	6
    1418	-3
    1419	1
    1420	-1
    1421	0
    1422	-1
    1423	2
    1424	-1
    1425	-1
    1426	2
    1427	4
    1428	2
    1429	-1
    1430	0
    1431	1
    1432	-1
    1433	1
    1434	-1
    1435	1
    1436	-3
    1437	-1
    1438	1
    1439	-1
    1440	-1
    1441	-1
    1442	-2
    1443	-3
    1444	-2
    1445	4
    1446	-1
    1447	0
    1448	-1
    1449	1
    1450	0
    1451	-1
    1452	-1
    1453	-1
    1454	1
    1455	1
    1456	1
    1457	1
    1458	1
    1459	1
    1460	1
    1461	-1
    1462	-3
    1463	-1
    1464	1
    1465	-1
    1466	1
    1467	1
    1468	-1
    1469	-1
    1470	-3
    1471	-1
    1472	-1
    1473	-1
    1474	1
    1475	1
    1476	-2
    1477	1
    1478	-1
    1479	-1
    1480	4
    1481	-3
    1482	0
    1483	-1
    1484	0
    1485	2
    1486	1
    1487	-2
    1488	0
    1489	3
    1490	-1
    1491	-1
    1492	1
    1493	1
    1494	1
    1495	1
    1496	1
    1497	0
    1498	1
    1499	-2
    1500	1
    1501	-1
    1502	-1
    1503	1
    1504	-1
    1505	1
    1506	1
    1507	-1
    1508	1
    1509	-1
    1510	-1
    1511	0
    1512	0
    1513	0
    1514	-3
    1515	-1
    1516	-2
    1517	2
    1518	-1
    1519	0
    1520	-1
    1521	1
    1522	1
    1523	1
    1524	1
    1525	-1
    1526	3
    1527	2
    1528	1
    1529	0
    1530	2
    1531	-3
    1532	1
    1533	1
    1534	-1
    1535	0
    1536	-1
    1537	1
    1538	-2
    1539	-2
    1540	1
    1541	1
    1542	-1
    1543	1
    1544	-1
    1545	-1
    1546	2
    1547	3
    1548	0
    1549	1
    1550	-3
    1551	3
    1552	-3
    1553	1
    1554	-1
    1555	1
    1556	-1
    1557	1
    1558	-1
    1559	1
    1560	-1
    1561	2
    1562	-1
    1563	-1
    1564	1
    1565	-1
    1566	-2
    1567	-1
    1568	0
    1569	2
    1570	-1
    1571	1
    1572	-1
    1573	-1
    1574	-1
    1575	1
    1576	3
    1577	2
    1578	-2
    1579	-1
    1580	2
    1581	11
    1582	1
    1583	1
    1584	-1
    1585	1
    1586	-1
    1587	-1
    1588	1
    1589	1
    1590	1
    1591	1
    1592	-1
    1593	-2
    1594	2
    1595	-2
    1596	-1
    1597	-1
    1598	-1
    1599	-1
    1600	-1
    1601	-1
    1602	-1
    1603	0
    1604	-1
    1605	3
    1606	-1
    1607	1
    1608	-1
    1609	-1
    1610	1
    1611	1
    1612	2
    1613	1
    1614	1
    1615	1
    1616	1
    1617	-1
    1618	-1
    1619	-4
    1620	-1
    1621	2
    1622	-1
    1623	-2
    1624	1
    1625	-1
    1626	-1
    1627	0
    1628	1
    1629	-1
    1630	2
    1631	-1
    1632	-1
    1633	-1
    1634	-1
    1635	-1
    1636	-3
    1637	-1
    1638	-1
    1639	-1
    1640	0
    1641	-6
    1642	-2
    1643	0
    1644	1
    1645	-1
    1646	-1
    1647	-5
    1648	2
    1649	-2
    1650	-1
    1651	-3
    1652	0
    1653	1
    1654	3
    1655	-2
    1656	-2
    1657	1
    1658	0
    1659	0
    1660	-1
    1661	-1
    1662	2
    1663	0
    1664	-3
    1665	-2
    1666	-2
    1667	-2
    1668	-1
    1669	-3
    1670	1
    1671	1
    1672	1
    1673	-2
    1674	-1
    1675	1
    1676	-1
    1677	-1
    1678	1
    1679	-1
    1680	-1
    1681	-1
    1682	-1
    1683	1
    1684	2
    1685	-1
    1686	1
    1687	1
    1688	-1
    1689	-1
    1690	-1
    1691	1
    1692	3
    1693	0
    1694	1
    1695	1
    1696	1
    1697	-1
    1698	-3
    1699	-1
    1700	-1
    1701	2
    1702	0
    1703	-1
    1704	0
    1705	-1
    1706	1
    1707	1
    1708	0
    1709	1
    1710	0
    1711	-1
    1712	1
    1713	1
    1714	1
    1715	0
    1716	2
    1717	-1
    1718	-1
    1719	-4
    1720	-1
    1721	1
    1722	-2
    1723	1
    1724	-1
    1725	1
    1726	-1
    1727	-1
    1728	1
    1729	-1
    1730	-1
    1731	-2
    1732	1
    1733	2
    1734	-2
    1735	-1
    1736	-3
    1737	-2
    1738	0
    1739	-2
    1740	1
    1741	-2
    1742	2
    1743	-1
    1744	1
    1745	1
    1746	1
    1747	1
    1748	1
    1749	1
    1750	7
    1751	1
    1752	0
    1753	0
    1754	-2
    1755	-1
    1756	-4
    1757	-2
    1758	-1
    1759	0
    1760	-2
    1761	-2
    1762	0
    1763	-1
    1764	-1
    1765	1
    1766	2
    1767	-1
    1768	1
    1769	0
    1770	0
    1771	-2
    1772	-1
    1773	-2
    1774	0
    1775	-1
    1776	1
    1777	1
    1778	-1
    1779	-1
    1780	-5
    1781	-4
    1782	-1
    1783	1
    1784	-1
    1785	1
    1786	-1
    1787	-1
    1788	-3
    1789	4
    1790	-1
    1791	0
    1792	1
    1793	-1
    1794	-1
    1795	-5
    1796	-1
    1797	1
    1798	-2
    1799	-1
    1800	2
    1801	1
    1802	1
    1803	-1
    1804	-2
    1805	1
    1806	-1
    1807	2
    1808	-4
    1809	-1
    1810	-1
    1811	1
    1812	1
    1813	-3
    1814	1
    1815	0
    1816	0
    1817	0
    1818	2
    1819	1
    1820	1
    1821	1
    1822	-2
    1823	1
    1824	-1
    1825	-1
    1826	1
    1827	2
    1828	-1
    1829	1
    1830	-1
    1831	1
    1832	1
    1833	1
    1834	-1
    1835	-1
    1836	3
    1837	1
    1838	1
    1839	-1
    1840	1
    1841	2
    1842	-1
    1843	-1
    1844	-1
    1845	1
    1846	1
    1847	1
    1848	-1
    1849	1
    1850	-4
    1851	6
    1852	-1
    1853	1
    1854	-1
    1855	-1
    1856	-1
    1857	-1
    1858	2
    1859	-1
    1860	-1
    1861	-1
    1862	-2
    1863	1
    1864	1
    1865	2
    1866	6
    1867	1
    1868	1
    1869	1
    1870	1
    1871	2
    1872	0
    1873	2
    1874	-2
    1875	0
    1876	0
    1877	0
    1878	2
    1879	-2
    1880	1
    1881	2
    1882	-1
    1883	1
    1884	-1
    1885	2
    1886	1
    1887	-2
    1888	-3
    1889	2
    1890	-1
    1891	-1
    1892	0
    1893	0
    1894	1
    1895	5
    1896	0
    1897	-1
    1898	-1
    1899	-1
    1900	0
    1901	-1
    1902	2
    1903	-4
    1904	2
    1905	-1
    1906	3
    1907	1
    1908	-1
    1909	1
    1910	1
    1911	1
    1912	-1
    1913	3
    1914	-2
    1915	-1
    1916	-2
    1917	1
    1918	-1
    1919	2
    1920	-1
    1921	1
    1922	-1
    1923	2
    1924	1
    1925	-1
    1926	-1
    1927	-1
    1928	1
    1929	1
    1930	-2
    1931	-1
    1932	1
    1933	1
    1934	-3
    1935	5
    1936	-2
    1937	-1
    1938	-2
    1939	-1
    1940	-1
    1941	-1
    1942	-3
    1943	0
    1944	1
    1945	-1
    1946	2
    1947	2
    1948	1
    1949	-2
    1950	2
    1951	-2
    1952	1
    1953	-1
    1954	-2
    1955	-1
    1956	0
    1957	1
    1958	1
    1959	1
    1960	1
    1961	1
    1962	-1
    1963	2
    1964	-2
    1965	1
    1966	1
    1967	0
    1968	1
    1969	-4
    1970	1
    1971	0
    1972	-1
    1973	-1
    1974	-3
    1975	-1
    1976	-3
    1977	-2
    1978	-2
    1979	-1
    1980	1
    1981	3
    1982	2
    1983	-3
    1984	1
    1985	1
    1986	1
    1987	-1
    1988	-1
    1989	1
    1990	-1
    1991	-1
    1992	0
    1993	1
    1994	1
    1995	-1
    1996	1
    1997	1
    1998	1
    1999	-1
    2000	-1
    2001	-3
    2002	-1
    2003	1
    2004	-1
    2005	3
    2006	1
    2007	1
    2008	1
    2009	2
    2010	1
    2011	-1
    2012	-1
    2013	-2
    2014	1
    2015	1
    2016	-1
    2017	1
    2018	1
    2019	1
    2020	0
    2021	1
    2022	-2
    2023	0
    2024	2
    2025	1
    2026	1
    2027	-1
    2028	0
    2029	1
    2030	-3
    2031	1
    2032	-2
    2033	1
    2034	1
    2035	-2
    2036	1
    2037	1
    2038	-4
    2039	-2
    2040	2
    2041	-2
    2042	-2
    2043	-2
    2044	1
    2045	1
    2046	-1
    2047	1
    2048	1
    2049	0
    2050	1
    2051	-2
    2052	0
    2053	1
    2054	-3
    2055	-1
    2056	1
    2057	-3
    2058	-2
    2059	-6
    2060	1
    2061	3
    2062	7
    2063	1
    2064	1
    2065	3
    2066	-1
    2067	-1
    2068	1
    2069	1
    2070	3
    2071	1
    2072	-2
    2073	-1
    2074	-1
    2075	-1
    2076	-9
    2077	-1
    2078	-1
    2079	-1
    2080	1
    2081	-1
    2082	1
    2083	2
    2084	-1
    2085	-1
    2086	1
    2087	-1
    2088	-1
    2089	-1
    2090	5
    2091	-1
    2092	-1
    2093	2
    2094	2
    2095	-3
    2096	-4
    2097	-5
    2098	2
    2099	-1
    2100	-1
    2101	1
    2102	0
    2103	-1
    2104	-1
    2105	1
    2106	1
    2107	-1
    2108	0
    2109	-1
    2110	-2
    2111	1
    2112	1
    2113	0
    2114	2
    2115	1
    2116	0
    2117	1
    2118	0
    2119	-5
    2120	-1
    2121	-2
    2122	1
    2123	1
    2124	1
    2125	-2
    2126	-1
    2127	-1
    2128	-1
    2129	-1
    2130	1
    2131	0
    2132	2
    2133	1
    2134	-1
    2135	-1
    2136	0
    2137	1
    2138	-1
    2139	0
    2140	-1
    2141	2
    2142	-1
    2143	1
    2144	-1
    2145	0
    2146	1
    2147	-1
    2148	1
    2149	1
    2150	-1
    2151	1
    2152	0
    2153	0
    2154	1
    2155	5
    2156	-4
    2157	-1
    2158	-1
    2159	-2
    2160	1
    2161	0
    2162	1
    2163	5
    2164	2
    2165	-1
    2166	0
    2167	1
    2168	1
    2169	1
    2170	0
    2171	1
    2172	-1
    2173	0
    2174	1
    2175	-3
    2176	1
    2177	-2
    2178	1
    2179	-1
    2180	1
    2181	0
    2182	-1
    2183	-1
    2184	-2
    2185	1
    2186	-1
    2187	1
    2188	-1
    2189	1
    2190	-1
    2191	1
    2192	-1
    2193	1
    2194	-1
    2195	1
    2196	-3
    2197	-1
    2198	-1
    2199	-2
    2200	2
    2201	0
    2202	-1
    2203	1
    2204	-1
    2205	-1
    2206	-4
    2207	0
    2208	-1
    2209	1
    2210	1
    2211	1
    2212	-1
    2213	0
    2214	-1
    2215	-2
    2216	-1
    2217	-1
    2218	1
    2219	-1
    2220	1
    2221	1
    2222	1
    2223	1
    2224	2
    2225	0
    2226	3
    2227	0
    2228	-1
    2229	1
    2230	-2
    2231	1
    2232	-1
    2233	-3
    2234	1
    2235	-1
    2236	2
    2237	-1
    2238	-1
    2239	-1
    2240	-1
    2241	-1
    2242	1
    2243	1
    2244	0
    2245	1
    2246	1
    2247	1
    2248	1
    2249	1
    2250	1
    2251	1
    2252	0
    2253	1
    2254	-2
    2255	0
    2256	-1
    2257	-2
    2258	1
    2259	1
    2260	2
    2261	-1
    2262	-1
    2263	1
    2264	2
    2265	-3
    2266	-1
    2267	-2
    2268	0
    2269	1
    2270	1
    2271	-1
    2272	1
    2273	1
    2274	-6
    2275	-1
    2276	1
    2277	1
    2278	2
    2279	1
    2280	-2
    2281	1
    2282	2
    2283	-1
    2284	0
    2285	2
    2286	-1
    2287	1
    2288	-2
    2289	-2
    2290	0
    2291	1
    2292	1
    2293	1
    2294	2
    2295	-1
    2296	1
    2297	-1
    2298	0
    2299	-1
    2300	0
    2301	-1
    2302	-1
    2303	-2
    2304	1
    2305	1
    2306	-1
    2307	1
    2308	1
    2309	-1
    2310	1
    2311	-2
    2312	-1
    2313	1
    2314	1
    2315	-2
    2316	-1
    2317	-1
    2318	-1
    2319	-2
    2320	1
    2321	-3
    2322	-1
    2323	1
    2324	-1
    2325	-1
    2326	1
    2327	1
    2328	0
    2329	-1
    2330	-3
    2331	-5
    2332	3
    2333	2
    2334	-2
    2335	2
    2336	3
    2337	-2
    2338	0
    2339	1
    2340	-1
    2341	0
    2342	-1
    2343	-1
    2344	-1
    2345	1
    2346	1
    2347	1
    2348	-1
    2349	-1
    2350	1
    2351	-1
    2352	-1
    2353	-1
    2354	1
    2355	1
    2356	1
    2357	0
    2358	2
    2359	1
    2360	1
    2361	1
    2362	1
    2363	-1
    2364	-2
    2365	-1
    2366	-1
    2367	0
    2368	1
    2369	-1
    2370	3
    2371	1
    2372	0
    2373	1
    2374	-1
    2375	1
    2376	-2
    2377	-2
    2378	-1
    2379	1
    2380	-1
    2381	1
    2382	2
    2383	1
    2384	2
    2385	0
    2386	-2
    2387	-1
    2388	-1
    2389	-1
    2390	-3
    2391	-1
    2392	-2
    2393	1
    2394	1
    2395	1
    2396	-3
    2397	1
    2398	-1
    2399	-2
    2400	1
    2401	1
    2402	-1
    2403	-2
    2404	1
    2405	1
    2406	1
    2407	1
    2408	1
    2409	1
    2410	-1
    2411	1
    2412	2
    2413	-2
    2414	-1
    2415	1
    2416	2
    2417	-1
    2418	0
    2419	-1
    2420	-1
    2421	-2
    2422	1
    2423	1
    2424	-1
    2425	-1
    2426	-2
    2427	1
    2428	1
    2429	2
    2430	-1
    2431	2
    2432	1
    2433	-3
    2434	1
    2435	1
    2436	1
    2437	-1
    2438	0
    2439	1
    2440	2
    2441	-1
    2442	1
    2443	1
    2444	1
    2445	-1
    2446	-2
    2447	2
    2448	1
    2449	2
    2450	-1
    2451	-1
    2452	-1
    2453	1
    2454	1
    2455	0
    2456	6
    2457	0
    2458	1
    2459	1
    2460	-1
    2461	1
    2462	-1
    2463	0
    2464	1
    2465	1
    2466	-1
    2467	1
    2468	2
    2469	-1
    2470	2
    2471	-1
    2472	3
    2473	-1
    2474	-1
    2475	1
    2476	1
    2477	-2
    2478	-1
    2479	-2
    2480	-3
    2481	-1
    2482	-1
    2483	1
    2484	-1
    2485	0
    2486	-2
    2487	3
    2488	-1
    2489	2
    2490	-1
    2491	-1
    2492	0
    2493	-3
    2494	-1
    2495	2
    2496	-1
    2497	1
    2498	1
    2499	-2
    2500	1
    2501	1
    2502	0
    2503	-3
    2504	-1
    2505	-2
    2506	-1
    2507	-1
    2508	1
    2509	1
    2510	-2
    2511	0
    2512	1
    2513	4
    2514	-2
    2515	-1
    2516	1
    2517	1
    2518	1
    2519	1
    2520	-1
    2521	-1
    2522	1
    2523	-1
    2524	1
    2525	1
    2526	1
    2527	-3
    2528	-1
    2529	1
    2530	-3
    2531	1
    2532	1
    2533	1
    2534	1
    2535	-1
    2536	0
    2537	2
    2538	0
    2539	-1
    2540	1
    2541	-1
    2542	1
    2543	0
    2544	-3
    2545	-1
    2546	-7
    2547	1
    2548	-2
    2549	1
    2550	0
    2551	0
    2552	-1
    2553	0
    2554	-2
    2555	-2
    2556	1
    2557	-2
    2558	-1
    2559	-1
    2560	-1
    2561	1
    2562	-1
    2563	1
    2564	-1
    2565	-1
    2566	1
    2567	0
    2568	-1
    2569	-2
    2570	1
    2571	0
    2572	1
    2573	5
    2574	2
    2575	1
    2576	1
    2577	-4
    2578	-1
    2579	0
    2580	1
    2581	-1
    2582	1
    2583	-3
    2584	0
    2585	-1
    2586	-1
    2587	-1
    2588	-2
    2589	1
    2590	2
    2591	1
    2592	-2
    2593	1
    2594	1
    2595	-1
    2596	-1
    2597	1
    2598	-1
    2599	-2
    2600	-2
    2601	1
    2602	1
    2603	-1
    2604	-2
    2605	0
    2606	-1
    2607	1
    2608	-1
    2609	-1
    2610	-2
    2611	-1
    2612	-3
    2613	-2
    2614	1
    2615	-1
    2616	-1
    2617	1
    2618	-1
    2619	-1
    2620	1
    2621	-1
    2622	1
    2623	-1
    2624	-2
    2625	1
    2626	1
    2627	-1
    2628	1
    2629	-4
    2630	-2
    2631	1
    2632	-1
    2633	-2
    2634	1
    2635	-1
    2636	0
    2637	-1
    2638	1
    2639	1
    2640	-1
    2641	1
    2642	1
    2643	1
    2644	1
    2645	-1
    2646	1
    2647	1
    2648	-1
    2649	1
    2650	1
    2651	1
    2652	1
    2653	1
    2654	1
    2655	-2
    2656	-2
    2657	2
    2658	0
    2659	-1
    2660	-1
    2661	0
    2662	-3
    2663	-1
    2664	-1
    2665	2
    2666	-4
    2667	0
    2668	-1
    2669	2
    2670	-1
    2671	2
    2672	1
    2673	1
    2674	1
    2675	-1
    2676	0
    2677	-2
    2678	1
    2679	1
    2680	-1
    2681	1
    2682	-1
    2683	-1
    2684	-3
    2685	0
    2686	1
    2687	-2
    2688	0
    2689	-1
    2690	0
    2691	1
    2692	1
    2693	-1
    2694	1
    2695	0
    2696	-1
    2697	-1
    2698	0
    2699	3
    2700	1
    2701	11
    2702	0
    2703	-1
    2704	-1
    2705	-1
    2706	2
    2707	-1
    2708	-2
    2709	-1
    2710	1
    2711	-2
    2712	-2
    2713	1
    2714	2
    2715	-10
    2716	-1
    2717	-1
    2718	1
    2719	-2
    2720	-1
    2721	0
    2722	4
    2723	-1
    2724	-1
    2725	2
    2726	0
    2727	1
    2728	5
    2729	2
    2730	0
    2731	1
    2732	1
    2733	1
    2734	1
    2735	-1
    2736	-1
    2737	-2
    2738	-1
    2739	8
    2740	-1
    2741	-2
    2742	1
    2743	1
    2744	-2
    2745	-1
    2746	1
    2747	0
    2748	1
    2749	1
    2750	0
    2751	1
    2752	2
    2753	4
    2754	-1
    2755	2
    2756	-1
    2757	0
    2758	6
    2759	-2
    2760	-7
    2761	1
    2762	0
    2763	1
    2764	7
    2765	-1
    2766	-2
    2767	1
    2768	2
    2769	1
    2770	2
    2771	-1
    2772	0
    2773	-1
    2774	-1
    2775	1
    2776	-2
    2777	-1
    2778	9
    2779	0
    2780	1
    2781	1
    2782	3
    2783	1
    2784	1
    2785	-2
    2786	1
    2787	0
    2788	-2
    2789	-1
    2790	-2
    2791	1
    2792	1
    2793	3
    2794	1
    2795	2
    2796	2
    2797	-1
    2798	1
    2799	1
    2800	1
    2801	-4
    2802	1
    2803	1
    2804	0
    2805	-1
    2806	1
    2807	1
    2808	0
    2809	0
    2810	-1
    2811	0
    2812	0
    2813	1
    2814	1
    2815	0
    2816	2
    2817	2
    2818	-1
    2819	5
    2820	1
    2821	-1
    2822	2
    2823	-1
    2824	1
    2825	1
    2826	2
    2827	1
    2828	1
    2829	-1
    2830	0
    2831	2
    2832	1
    2833	0
    2834	1
    2835	-1
    2836	-1
    2837	-1
    2838	0
    2839	2
    2840	1
    2841	-2
    2842	5

Protected from visiting 5439 non-manifold edges

CellZones:
    fluid	size:157954
    heater	size:648
    fins	size:54268

FaceZones:
    interface_heaterToFins	size:72
    interface_fluidToFins	size:62140

Edge intersection testing:
    Number of edges             : 658641
    Number of edges to retest   : 0
    Number of intersected edges : 70319

Handling cells with snap problems
---------------------------------

Introducing baffles for 70319 faces that are intersected by the surface.

Setting cellZones according to locationsInMesh:
Location : (1 10 1)
    cellZone : none

For cellZone none found point (1 10 1) in global region 0 out of 1 regions.
Found 2 named surfaces with a provided inside point. Assigning cells inside these surfaces to the corresponding cellZone.

For cellZone heater found point (0.01 -10 0.01) in global region 7 out of 940 regions.
For cellZone fins found point (0.01 0.001 0.001) in global region 1 out of 940 regions.
Walking from known cellZones; crossing a faceZone face changes cellZone

Edge intersection testing:
    Number of edges             : 658641
    Number of edges to retest   : 31456
    Number of intersected edges : 70319
Created baffles in = 19.71 s


After introducing baffles : cells:212870  faces:658641  points:233210
Cells per refinement level:
    0	21837
    1	2337
    2	42968
    3	145728

Introducing baffles to block off problem cells
----------------------------------------------

markFacesOnProblemCells : marked 0 additional internal faces to be converted into baffles.
Analyzed problem cells in = 0.31 s


Introducing baffles to delete problem cells.

Created baffles in = 0.07 s


After introducing baffles : cells:212870  faces:658641  points:233210
Cells per refinement level:
    0	21837
    1	2337
    2	42968
    3	145728
Setting cellZones according to locationsInMesh:
Location : (1 10 1)
    cellZone : none

For cellZone none found point (1 10 1) in global region 0 out of 1 regions.
Found 2 named surfaces with a provided inside point. Assigning cells inside these surfaces to the corresponding cellZone.

For cellZone heater found point (0.01 -10 0.01) in global region 7 out of 940 regions.
For cellZone fins found point (0.01 0.001 0.001) in global region 1 out of 940 regions.
Walking from known cellZones; crossing a faceZone face changes cellZone

Edge intersection testing:
    Number of edges             : 658641
    Number of edges to retest   : 31456
    Number of intersected edges : 70319

Remove unreachable sections of mesh
-----------------------------------

Split mesh in = 0.86 s


After subsetting : cells:212870  faces:658641  points:233210
Cells per refinement level:
    0	21837
    1	2337
    2	42968
    3	145728

Merge free-standing baffles
---------------------------

freeStandingBaffles : detected 0 free-standing baffles out of 0

Detected free-standing baffles : 0
Merged free-standing baffles in = 0.1 s


dupNonManifoldPoints : Found : 0 non-manifold points (out of 233210)
Detected unsplittable baffles : 0

Merge refined boundary faces
----------------------------

Merging 0 sets of faces.

No faces merged ...

Merging all points on surface that
- are used by only two boundary faces and
- make an angle with a cosine of more than 0.707107.

No straight edges simplified and no points removed ...
Refined mesh : cells:212870  faces:658641  points:233210
Cells per refinement level:
    0	21837
    1	2337
    2	42968
    3	145728
Writing mesh to time constant
Wrote mesh in = 0.07 s.
Mesh refined in = 31.82 s.

Morphing phase
--------------

Converting zoned faces into baffles ...

FaceZone                      FaceType  nBaffles  
--------                      --------  --------  
interface_heaterToFins        internal  72        
interface_fluidToFins         internal  62140     

Edge intersection testing:
    Number of edges             : 720853
    Number of edges to retest   : 397738
    Number of intersected edges : 130758
Created 62212 baffles in = 1.27 s


Duplicating 0 points on faceZones of type boundary
Snapping to features in 10 iterations ...
Constructing mesh displacer ...
Using mesh parameters 
{
    maxNonOrtho     65;
    maxBoundarySkewness 20;
    maxInternalSkewness 4;
    maxConcave      80;
    minVol          1e-13;
    minTetQuality   1e-15;
    minArea         -1;
    minTwist        0.02;
    minDeterminant  0.001;
    minFaceWeight   0.05;
    minVolRatio     0.01;
    minTriangleTwist -1;
    nSmoothScale    4;
    errorReduction  0.75;
    relaxed
    {
        maxNonOrtho     75;
    }
}


Checking initial mesh ...
Checking faces in error :
    non-orthogonality > 65  degrees                        : 0
    faces with face pyramid volume < 1e-13                 : 0
    faces with face-decomposition tet quality < 1e-15      : 0
    faces with concavity > 80  degrees                     : 0
    faces with skewness > 4   (internal) or 20  (boundary) : 0
    faces with interpolation weights (0..1)  < 0.05        : 0
    faces with volume ratio of neighbour cells < 0.01      : 0
    faces with face twist < 0.02                           : 0
    faces on cells with determinant < 0.001                : 0
Detected 0 illegal faces (concave, zero area or negative cell pyramid volume)
Checked initial mesh in = 0.98 s


Smoothing patch points ...
Smoothing iteration 0
Found 0 non-manifold point(s).

Scaling iteration 0
Moving mesh using displacement scaling : min:1  max:1
Checking faces in error :
    non-orthogonality > 65  degrees                        : 0
    faces with face pyramid volume < 1e-13                 : 0
    faces with face-decomposition tet quality < 1e-15      : 0
    faces with concavity > 80  degrees                     : 0
    faces with skewness > 4   (internal) or 20  (boundary) : 0
    faces with interpolation weights (0..1)  < 0.05        : 0
    faces with volume ratio of neighbour cells < 0.01      : 0
    faces with face twist < 0.02                           : 0
    faces on cells with determinant < 0.001                : 0
Successfully moved mesh

Smoothing iteration 1
Found 0 non-manifold point(s).

Scaling iteration 0
Moving mesh using displacement scaling : min:1  max:1
Checking faces in error :
    non-orthogonality > 65  degrees                        : 0
    faces with face pyramid volume < 1e-13                 : 0
    faces with face-decomposition tet quality < 1e-15      : 0
    faces with concavity > 80  degrees                     : 0
    faces with skewness > 4   (internal) or 20  (boundary) : 0
    faces with interpolation weights (0..1)  < 0.05        : 0
    faces with volume ratio of neighbour cells < 0.01      : 0
    faces with face twist < 0.02                           : 0
    faces on cells with determinant < 0.001                : 0
Successfully moved mesh

Smoothing iteration 2
Found 0 non-manifold point(s).

Scaling iteration 0
Moving mesh using displacement scaling : min:1  max:1
Checking faces in error :
    non-orthogonality > 65  degrees                        : 0
    faces with face pyramid volume < 1e-13                 : 0
    faces with face-decomposition tet quality < 1e-15      : 0
    faces with concavity > 80  degrees                     : 0
    faces with skewness > 4   (internal) or 20  (boundary) : 0
    faces with interpolation weights (0..1)  < 0.05        : 0
    faces with volume ratio of neighbour cells < 0.01      : 0
    faces with face twist < 0.02                           : 0
    faces on cells with determinant < 0.001                : 0
Successfully moved mesh

Patch points smoothed in = 2.6 s



Morph iteration 0
-----------------
Calculating patchDisplacement as distance to nearest surface point ...
    non-zone points : attract to nearest of all non-zone surfaces
    zone points     : attract to zone surface only

Wanted displacement : average:0.30838 min:1.84915e-15 max:4.41512
Calculated surface displacement in = 0.07 s


Detecting near surfaces ...
Overriding nearest with intersection of close gaps at 0 out of 65942 points.
Overriding displacement on features :
   implicit features    : true
   explicit features    : false
   multi-patch features : false

Attraction:
    linear   : max:(0 -4.41512 0) avg:(0.000272913 -0.0142597 -1.55963e-08)
    feature  : max:(-5.87434 -5.77153 -3.0747) avg:(0.000404697 -0.00623313 -3.85573e-06)
Feature analysis : total master points :65942 of which attracted to :
    feature point   : 68
    feature edge    : 3676
    nearest surface : 62198
    rest            : 0

--> FOAM Warning : Displacement (-0.000485721 -0.00104905 0.000894877) at mesh point 100 coord (-16 31.4286 -250.215) points through the surrounding patch faces
Smoothing displacement ...
Iteration 0
Iteration 10
Iteration 20
Iteration 30
Iteration 40
Iteration 50
Iteration 60
Iteration 70
Iteration 80
Iteration 90
Displacement smoothed in = 2.02 s


Moving mesh ...

Iteration 0
Moving mesh using displacement scaling : min:1  max:1
Checking faces in error :
    non-orthogonality > 65  degrees                        : 0
    faces with face pyramid volume < 1e-13                 : 0
    faces with face-decomposition tet quality < 1e-15      : 0
    faces with concavity > 80  degrees                     : 0
    faces with skewness > 4   (internal) or 20  (boundary) : 0
    faces with interpolation weights (0..1)  < 0.05        : 0
    faces with volume ratio of neighbour cells < 0.01      : 0
    faces with face twist < 0.02                           : 0
    faces on cells with determinant < 0.001                : 0
Successfully moved mesh
Moved mesh in = 0.69 s



Morph iteration 1
-----------------
Calculating patchDisplacement as distance to nearest surface point ...
    non-zone points : attract to nearest of all non-zone surfaces
    zone points     : attract to zone surface only

Wanted displacement : average:0.282145 min:7.3419e-05 max:3.97361
Calculated surface displacement in = 0.07 s


Detecting near surfaces ...
Overriding nearest with intersection of close gaps at 0 out of 65942 points.
Overriding displacement on features :
   implicit features    : true
   explicit features    : false
   multi-patch features : false

Attraction:
    linear   : max:(3.55271e-15 -3.97361 0) avg:(0.000261491 -0.0124293 1.5481e-07)
    feature  : max:(-5.81559 -5.71381 -2.76723) avg:(0.000331718 -0.00609213 3.61488e-06)
Feature analysis : total master points :65942 of which attracted to :
    feature point   : 68
    feature edge    : 3698
    nearest surface : 62176
    rest            : 0

--> FOAM Warning : Displacement (-0.00015147 -0.0112158 0.0013185) at mesh point 83 coord (-8.00004 25.7113 -250.221) points through the surrounding patch faces
Smoothing displacement ...
Iteration 0
Iteration 10
Iteration 20
Iteration 30
Iteration 40
Iteration 50
Iteration 60
Iteration 70
Iteration 80
Iteration 90
Displacement smoothed in = 2.03 s


Moving mesh ...

Iteration 0
Moving mesh using displacement scaling : min:1  max:1
Checking faces in error :
    non-orthogonality > 65  degrees                        : 0
    faces with face pyramid volume < 1e-13                 : 0
    faces with face-decomposition tet quality < 1e-15      : 0
    faces with concavity > 80  degrees                     : 0
    faces with skewness > 4   (internal) or 20  (boundary) : 0
    faces with interpolation weights (0..1)  < 0.05        : 0
    faces with volume ratio of neighbour cells < 0.01      : 0
    faces with face twist < 0.02                           : 0
    faces on cells with determinant < 0.001                : 0
Successfully moved mesh
Moved mesh in = 0.76 s



Morph iteration 2
-----------------
Calculating patchDisplacement as distance to nearest surface point ...
    non-zone points : attract to nearest of all non-zone surfaces
    zone points     : attract to zone surface only

Wanted displacement : average:0.233437 min:2.64983e-06 max:3.44064
Calculated surface displacement in = 0.07 s


Detecting near surfaces ...
Overriding nearest with intersection of close gaps at 0 out of 65942 points.
Overriding displacement on features :
   implicit features    : true
   explicit features    : false
   multi-patch features : false

Attraction:
    linear   : max:(8.31561e-16 -3.44064 -5.68434e-14) avg:(0.000233718 -0.00936894 -7.46963e-07)
    feature  : max:(-5.58297 -5.48526 -2.21378) avg:(0.000335748 -0.00961334 -3.52722e-06)
Feature analysis : total master points :65942 of which attracted to :
    feature point   : 64
    feature edge    : 3685
    nearest surface : 62193
    rest            : 0

--> FOAM Warning : Displacement (-0.0044168 -0.0238202 0.0202644) at mesh point 81 coord (-16.0025 25.7003 -250.241) points through the surrounding patch faces
Smoothing displacement ...
Iteration 0
Iteration 10
Iteration 20
Iteration 30
Iteration 40
Iteration 50
Iteration 60
Iteration 70
Iteration 80
Iteration 90
Displacement smoothed in = 2.03 s


Moving mesh ...

Iteration 0
Moving mesh using displacement scaling : min:1  max:1
Checking faces in error :
    non-orthogonality > 65  degrees                        : 1
    faces with face pyramid volume < 1e-13                 : 0
    faces with face-decomposition tet quality < 1e-15      : 0
    faces with concavity > 80  degrees                     : 0
    faces with skewness > 4   (internal) or 20  (boundary) : 0
    faces with interpolation weights (0..1)  < 0.05        : 0
    faces with volume ratio of neighbour cells < 0.01      : 0
    faces with face twist < 0.02                           : 0
    faces on cells with determinant < 0.001                : 0

Iteration 1
Moving mesh using displacement scaling : min:0.75  max:1
Checking faces in error :
    non-orthogonality > 65  degrees                        : 0
    faces with face pyramid volume < 1e-13                 : 0
    faces with face-decomposition tet quality < 1e-15      : 0
    faces with concavity > 80  degrees                     : 0
    faces with skewness > 4   (internal) or 20  (boundary) : 0
    faces with interpolation weights (0..1)  < 0.05        : 0
    faces with volume ratio of neighbour cells < 0.01      : 0
    faces with face twist < 0.02                           : 0
    faces on cells with determinant < 0.001                : 0
Successfully moved mesh
Moved mesh in = 1.01 s



Morph iteration 3
-----------------
Calculating patchDisplacement as distance to nearest surface point ...
    non-zone points : attract to nearest of all non-zone surfaces
    zone points     : attract to zone surface only

Wanted displacement : average:0.173487 min:2.98357e-05 max:2.73779
Calculated surface displacement in = 0.07 s


Detecting near surfaces ...
Overriding nearest with intersection of close gaps at 0 out of 65942 points.
Overriding displacement on features :
   implicit features    : true
   explicit features    : false
   multi-patch features : false

Attraction:
    linear   : max:(2.66454e-15 -2.73779 0) avg:(0.000183603 -0.00667981 6.29822e-06)
    feature  : max:(-5.0805 -4.99158 -1.54965) avg:(0.000388593 -0.0128396 -2.26215e-06)
Feature analysis : total master points :65942 of which attracted to :
    feature point   : 68
    feature edge    : 3721
    nearest surface : 62153
    rest            : 0

--> FOAM Warning : Displacement (-0.0222203 -0.181634 0.00629021) at mesh point 42 coord (-20.0203 14.1673 -250.547) points through the surrounding patch faces
Smoothing displacement ...
Iteration 0
Iteration 10
Iteration 20
Iteration 30
Iteration 40
Iteration 50
Iteration 60
Iteration 70
Iteration 80
Iteration 90
Displacement smoothed in = 2.02 s


Moving mesh ...

Iteration 0
Moving mesh using displacement scaling : min:1  max:1
Checking faces in error :
    non-orthogonality > 65  degrees                        : 17
    faces with face pyramid volume < 1e-13                 : 0
    faces with face-decomposition tet quality < 1e-15      : 0
    faces with concavity > 80  degrees                     : 0
    faces with skewness > 4   (internal) or 20  (boundary) : 0
    faces with interpolation weights (0..1)  < 0.05        : 0
    faces with volume ratio of neighbour cells < 0.01      : 0
    faces with face twist < 0.02                           : 0
    faces on cells with determinant < 0.001                : 0

Iteration 1
Moving mesh using displacement scaling : min:0.75  max:1
Checking faces in error :
    non-orthogonality > 65  degrees                        : 9
    faces with face pyramid volume < 1e-13                 : 0
    faces with face-decomposition tet quality < 1e-15      : 0
    faces with concavity > 80  degrees                     : 0
    faces with skewness > 4   (internal) or 20  (boundary) : 0
    faces with interpolation weights (0..1)  < 0.05        : 0
    faces with volume ratio of neighbour cells < 0.01      : 0
    faces with face twist < 0.02                           : 0
    faces on cells with determinant < 0.001                : 0

Iteration 2
Moving mesh using displacement scaling : min:0.5625  max:1
Checking faces in error :
    non-orthogonality > 65  degrees                        : 6
    faces with face pyramid volume < 1e-13                 : 0
    faces with face-decomposition tet quality < 1e-15      : 0
    faces with concavity > 80  degrees                     : 0
    faces with skewness > 4   (internal) or 20  (boundary) : 0
    faces with interpolation weights (0..1)  < 0.05        : 0
    faces with volume ratio of neighbour cells < 0.01      : 0
    faces with face twist < 0.02                           : 0
    faces on cells with determinant < 0.001                : 0

Iteration 3
Moving mesh using displacement scaling : min:0.421875  max:1
Checking faces in error :
    non-orthogonality > 65  degrees                        : 3
    faces with face pyramid volume < 1e-13                 : 0
    faces with face-decomposition tet quality < 1e-15      : 0
    faces with concavity > 80  degrees                     : 0
    faces with skewness > 4   (internal) or 20  (boundary) : 0
    faces with interpolation weights (0..1)  < 0.05        : 0
    faces with volume ratio of neighbour cells < 0.01      : 0
    faces with face twist < 0.02                           : 0
    faces on cells with determinant < 0.001                : 0

Iteration 4
Moving mesh using displacement scaling : min:0.316406  max:1
Checking faces in error :
    non-orthogonality > 65  degrees                        : 0
    faces with face pyramid volume < 1e-13                 : 0
    faces with face-decomposition tet quality < 1e-15      : 0
    faces with concavity > 80  degrees                     : 0
    faces with skewness > 4   (internal) or 20  (boundary) : 0
    faces with interpolation weights (0..1)  < 0.05        : 0
    faces with volume ratio of neighbour cells < 0.01      : 0
    faces with face twist < 0.02                           : 0
    faces on cells with determinant < 0.001                : 0
Successfully moved mesh
Moved mesh in = 1.81 s



Morph iteration 4
-----------------
Calculating patchDisplacement as distance to nearest surface point ...
    non-zone points : attract to nearest of all non-zone surfaces
    zone points     : attract to zone surface only

Wanted displacement : average:0.113489 min:3.81615e-06 max:1.81959
Calculated surface displacement in = 0.08 s


Detecting near surfaces ...
Overriding nearest with intersection of close gaps at 0 out of 65942 points.
Overriding displacement on features :
   implicit features    : true
   explicit features    : false
   multi-patch features : false

Attraction:
    linear   : max:(-3.55271e-15 -1.81959 0) avg:(0.000134585 -0.00405862 -1.23958e-05)
    feature  : max:(-4.26762 -4.19293 0.929788) avg:(0.000213611 -0.00912661 -2.11863e-05)
Feature analysis : total master points :65942 of which attracted to :
    feature point   : 68
    feature edge    : 3727
    nearest surface : 62147
    rest            : 0

--> FOAM Warning : Displacement (-0.137813 -0.363174 0.0997817) at mesh point 21 coord (-28.1609 8.61864 -250.596) points through the surrounding patch faces
Smoothing displacement ...
Iteration 0
Iteration 10
Iteration 20
Iteration 30
Iteration 40
Iteration 50
Iteration 60
Iteration 70
Iteration 80
Iteration 90
Displacement smoothed in = 2.19 s


Moving mesh ...

Iteration 0
Moving mesh using displacement scaling : min:1  max:1
Checking faces in error :
    non-orthogonality > 65  degrees                        : 28
    faces with face pyramid volume < 1e-13                 : 0
    faces with face-decomposition tet quality < 1e-15      : 0
    faces with concavity > 80  degrees                     : 0
    faces with skewness > 4   (internal) or 20  (boundary) : 0
    faces with interpolation weights (0..1)  < 0.05        : 0
    faces with volume ratio of neighbour cells < 0.01      : 0
    faces with face twist < 0.02                           : 0
    faces on cells with determinant < 0.001                : 0

Iteration 1
Moving mesh using displacement scaling : min:0.75  max:1
Checking faces in error :
    non-orthogonality > 65  degrees                        : 26
    faces with face pyramid volume < 1e-13                 : 0
    faces with face-decomposition tet quality < 1e-15      : 0
    faces with concavity > 80  degrees                     : 0
    faces with skewness > 4   (internal) or 20  (boundary) : 0
    faces with interpolation weights (0..1)  < 0.05        : 0
    faces with volume ratio of neighbour cells < 0.01      : 0
    faces with face twist < 0.02                           : 0
    faces on cells with determinant < 0.001                : 0

Iteration 2
Moving mesh using displacement scaling : min:0.5625  max:1
Checking faces in error :
    non-orthogonality > 65  degrees                        : 19
    faces with face pyramid volume < 1e-13                 : 0
    faces with face-decomposition tet quality < 1e-15      : 0
    faces with concavity > 80  degrees                     : 0
    faces with skewness > 4   (internal) or 20  (boundary) : 0
    faces with interpolation weights (0..1)  < 0.05        : 0
    faces with volume ratio of neighbour cells < 0.01      : 0
    faces with face twist < 0.02                           : 0
    faces on cells with determinant < 0.001                : 0

Iteration 3
Moving mesh using displacement scaling : min:0.421875  max:1
Checking faces in error :
    non-orthogonality > 65  degrees                        : 12
    faces with face pyramid volume < 1e-13                 : 0
    faces with face-decomposition tet quality < 1e-15      : 0
    faces with concavity > 80  degrees                     : 0
    faces with skewness > 4   (internal) or 20  (boundary) : 0
    faces with interpolation weights (0..1)  < 0.05        : 0
    faces with volume ratio of neighbour cells < 0.01      : 0
    faces with face twist < 0.02                           : 0
    faces on cells with determinant < 0.001                : 0

Iteration 4
Moving mesh using displacement scaling : min:0.316406  max:1
Checking faces in error :
    non-orthogonality > 65  degrees                        : 8
    faces with face pyramid volume < 1e-13                 : 0
    faces with face-decomposition tet quality < 1e-15      : 0
    faces with concavity > 80  degrees                     : 0
    faces with skewness > 4   (internal) or 20  (boundary) : 0
    faces with interpolation weights (0..1)  < 0.05        : 0
    faces with volume ratio of neighbour cells < 0.01      : 0
    faces with face twist < 0.02                           : 0
    faces on cells with determinant < 0.001                : 0

Iteration 5
Displacement scaling for error reduction set to 0.
Moving mesh using displacement scaling : min:0.237305  max:1
Checking faces in error :
    non-orthogonality > 65  degrees                        : 5
    faces with face pyramid volume < 1e-13                 : 0
    faces with face-decomposition tet quality < 1e-15      : 0
    faces with concavity > 80  degrees                     : 0
    faces with skewness > 4   (internal) or 20  (boundary) : 0
    faces with interpolation weights (0..1)  < 0.05        : 0
    faces with volume ratio of neighbour cells < 0.01      : 0
    faces with face twist < 0.02                           : 0
    faces on cells with determinant < 0.001                : 0

Iteration 6
Moving mesh using displacement scaling : min:0  max:1
Checking faces in error :
    non-orthogonality > 65  degrees                        : 1
    faces with face pyramid volume < 1e-13                 : 0
    faces with face-decomposition tet quality < 1e-15      : 0
    faces with concavity > 80  degrees                     : 0
    faces with skewness > 4   (internal) or 20  (boundary) : 0
    faces with interpolation weights (0..1)  < 0.05        : 0
    faces with volume ratio of neighbour cells < 0.01      : 0
    faces with face twist < 0.02                           : 0
    faces on cells with determinant < 0.001                : 0

Iteration 7
Moving mesh using displacement scaling : min:0  max:1
Checking faces in error :
    non-orthogonality > 65  degrees                        : 0
    faces with face pyramid volume < 1e-13                 : 0
    faces with face-decomposition tet quality < 1e-15      : 0
    faces with concavity > 80  degrees                     : 0
    faces with skewness > 4   (internal) or 20  (boundary) : 0
    faces with interpolation weights (0..1)  < 0.05        : 0
    faces with volume ratio of neighbour cells < 0.01      : 0
    faces with face twist < 0.02                           : 0
    faces on cells with determinant < 0.001                : 0
Successfully moved mesh
Moved mesh in = 2.64 s



Morph iteration 5
-----------------
Calculating patchDisplacement as distance to nearest surface point ...
    non-zone points : attract to nearest of all non-zone surfaces
    zone points     : attract to zone surface only

Wanted displacement : average:0.0653328 min:1.86199e-06 max:0.831942
Calculated surface displacement in = 0.07 s


Detecting near surfaces ...
Overriding nearest with intersection of close gaps at 0 out of 65942 points.
Overriding displacement on features :
   implicit features    : true
   explicit features    : false
   multi-patch features : false

Attraction:
    linear   : max:(-3.55271e-15 -0.831942 0) avg:(5.246e-05 -0.000797127 -1.05291e-05)
    feature  : max:(3.20072 -3.1447 -0.464894) avg:(0.000103101 -0.00461622 -1.72638e-05)
Feature analysis : total master points :65942 of which attracted to :
    feature point   : 72
    feature edge    : 3733
    nearest surface : 62137
    rest            : 0

--> FOAM Warning : Displacement (-0.374751 -0.303212 0.264562) at mesh point 20 coord (-32.4797 8.56716 -250.443) points through the surrounding patch faces
Smoothing displacement ...
Iteration 0
Iteration 10
Iteration 20
Iteration 30
Iteration 40
Iteration 50
Iteration 60
Iteration 70
Iteration 80
Iteration 90
Displacement smoothed in = 2.03 s


Moving mesh ...

Iteration 0
Moving mesh using displacement scaling : min:1  max:1
Checking faces in error :
    non-orthogonality > 65  degrees                        : 59
    faces with face pyramid volume < 1e-13                 : 0
    faces with face-decomposition tet quality < 1e-15      : 14
    faces with concavity > 80  degrees                     : 0
    faces with skewness > 4   (internal) or 20  (boundary) : 0
    faces with interpolation weights (0..1)  < 0.05        : 756
    faces with volume ratio of neighbour cells < 0.01      : 0
    faces with face twist < 0.02                           : 0
    faces on cells with determinant < 0.001                : 0

Iteration 1
Moving mesh using displacement scaling : min:0.75  max:1
Checking faces in error :
    non-orthogonality > 65  degrees                        : 34
    faces with face pyramid volume < 1e-13                 : 0
    faces with face-decomposition tet quality < 1e-15      : 8
    faces with concavity > 80  degrees                     : 0
    faces with skewness > 4   (internal) or 20  (boundary) : 0
    faces with interpolation weights (0..1)  < 0.05        : 383
    faces with volume ratio of neighbour cells < 0.01      : 0
    faces with face twist < 0.02                           : 0
    faces on cells with determinant < 0.001                : 0

Iteration 2
Moving mesh using displacement scaling : min:0.5625  max:1
Checking faces in error :
    non-orthogonality > 65  degrees                        : 30
    faces with face pyramid volume < 1e-13                 : 0
    faces with face-decomposition tet quality < 1e-15      : 8
    faces with concavity > 80  degrees                     : 0
    faces with skewness > 4   (internal) or 20  (boundary) : 0
    faces with interpolation weights (0..1)  < 0.05        : 206
    faces with volume ratio of neighbour cells < 0.01      : 0
    faces with face twist < 0.02                           : 0
    faces on cells with determinant < 0.001                : 0

Iteration 3
Moving mesh using displacement scaling : min:0.421875  max:1
Checking faces in error :
    non-orthogonality > 65  degrees                        : 25
    faces with face pyramid volume < 1e-13                 : 0
    faces with face-decomposition tet quality < 1e-15      : 4
    faces with concavity > 80  degrees                     : 0
    faces with skewness > 4   (internal) or 20  (boundary) : 0
    faces with interpolation weights (0..1)  < 0.05        : 97
    faces with volume ratio of neighbour cells < 0.01      : 0
    faces with face twist < 0.02                           : 0
    faces on cells with determinant < 0.001                : 0

Iteration 4
Moving mesh using displacement scaling : min:0.316406  max:1
Checking faces in error :
    non-orthogonality > 65  degrees                        : 16
    faces with face pyramid volume < 1e-13                 : 0
    faces with face-decomposition tet quality < 1e-15      : 2
    faces with concavity > 80  degrees                     : 0
    faces with skewness > 4   (internal) or 20  (boundary) : 0
    faces with interpolation weights (0..1)  < 0.05        : 31
    faces with volume ratio of neighbour cells < 0.01      : 0
    faces with face twist < 0.02                           : 2
    faces on cells with determinant < 0.001                : 0

Iteration 5
Displacement scaling for error reduction set to 0.
Moving mesh using displacement scaling : min:0.237305  max:1
Checking faces in error :
    non-orthogonality > 65  degrees                        : 13
    faces with face pyramid volume < 1e-13                 : 0
    faces with face-decomposition tet quality < 1e-15      : 2
    faces with concavity > 80  degrees                     : 0
    faces with skewness > 4   (internal) or 20  (boundary) : 0
    faces with interpolation weights (0..1)  < 0.05        : 5
    faces with volume ratio of neighbour cells < 0.01      : 0
    faces with face twist < 0.02                           : 0
    faces on cells with determinant < 0.001                : 0

Iteration 6
Moving mesh using displacement scaling : min:0  max:1
Checking faces in error :
    non-orthogonality > 65  degrees                        : 2
    faces with face pyramid volume < 1e-13                 : 0
    faces with face-decomposition tet quality < 1e-15      : 0
    faces with concavity > 80  degrees                     : 0
    faces with skewness > 4   (internal) or 20  (boundary) : 0
    faces with interpolation weights (0..1)  < 0.05        : 0
    faces with volume ratio of neighbour cells < 0.01      : 0
    faces with face twist < 0.02                           : 0
    faces on cells with determinant < 0.001                : 0

Iteration 7
Moving mesh using displacement scaling : min:0  max:1
Checking faces in error :
    non-orthogonality > 65  degrees                        : 0
    faces with face pyramid volume < 1e-13                 : 0
    faces with face-decomposition tet quality < 1e-15      : 0
    faces with concavity > 80  degrees                     : 0
    faces with skewness > 4   (internal) or 20  (boundary) : 0
    faces with interpolation weights (0..1)  < 0.05        : 0
    faces with volume ratio of neighbour cells < 0.01      : 0
    faces with face twist < 0.02                           : 0
    faces on cells with determinant < 0.001                : 0
Successfully moved mesh
Moved mesh in = 3.33 s



Morph iteration 6
-----------------
Calculating patchDisplacement as distance to nearest surface point ...
    non-zone points : attract to nearest of all non-zone surfaces
    zone points     : attract to zone surface only

Wanted displacement : average:0.0374286 min:5.78553e-07 max:0.493659
Calculated surface displacement in = 0.09 s


Detecting near surfaces ...
Overriding nearest with intersection of close gaps at 0 out of 65942 points.
Overriding displacement on features :
   implicit features    : true
[...]
   implicit features    : true
   explicit features    : false
   multi-patch features : false

Attraction:
    linear   : max:(0.576386 1.42109e-14 -5.68434e-14) avg:(-8.58066e-05 0.00273953 1.63542e-06)
    feature  : max:(-0.813474 0.775462 0) avg:(-0.000147057 0.00272453 -4.3494e-05)
Feature analysis : total master points :65942 of which attracted to :
    feature point   : 72
    feature edge    : 3833
    nearest surface : 62037
    rest            : 0

--> FOAM Warning : Displacement (-0.0355447 -0.00107236 0.000657538) at mesh point 116 coord (-28.5984 37.1208 -249.969) points through the surrounding patch faces
Smoothing displacement ...
Iteration 0
Iteration 10
Iteration 20
Iteration 30
Iteration 40
Iteration 50
Iteration 60
Iteration 70
Iteration 80
Iteration 90
Displacement smoothed in = 2.2 s


Moving mesh ...

Iteration 0
Moving mesh using displacement scaling : min:1  max:1
Checking faces in error :
    non-orthogonality > 65  degrees                        : 2807
    faces with face pyramid volume < 1e-13                 : 318
    faces with face-decomposition tet quality < 1e-15      : 945
    faces with concavity > 80  degrees                     : 39
    faces with skewness > 4   (internal) or 20  (boundary) : 0
    faces with interpolation weights (0..1)  < 0.05        : 9809
    faces with volume ratio of neighbour cells < 0.01      : 0
    faces with face twist < 0.02                           : 378
    faces on cells with determinant < 0.001                : 864

Iteration 1
Moving mesh using displacement scaling : min:0.75  max:1
Checking faces in error :
    non-orthogonality > 65  degrees                        : 1673
    faces with face pyramid volume < 1e-13                 : 0
    faces with face-decomposition tet quality < 1e-15      : 93
    faces with concavity > 80  degrees                     : 17
    faces with skewness > 4   (internal) or 20  (boundary) : 0
    faces with interpolation weights (0..1)  < 0.05        : 7762
    faces with volume ratio of neighbour cells < 0.01      : 0
    faces with face twist < 0.02                           : 2
    faces on cells with determinant < 0.001                : 16

Iteration 2
Moving mesh using displacement scaling : min:0.5625  max:1
Checking faces in error :
    non-orthogonality > 65  degrees                        : 1433
    faces with face pyramid volume < 1e-13                 : 0
    faces with face-decomposition tet quality < 1e-15      : 65
    faces with concavity > 80  degrees                     : 4
    faces with skewness > 4   (internal) or 20  (boundary) : 0
    faces with interpolation weights (0..1)  < 0.05        : 5165
    faces with volume ratio of neighbour cells < 0.01      : 0
    faces with face twist < 0.02                           : 0
    faces on cells with determinant < 0.001                : 0

Iteration 3
Moving mesh using displacement scaling : min:0.421875  max:1
Checking faces in error :
    non-orthogonality > 65  degrees                        : 1239
    faces with face pyramid volume < 1e-13                 : 0
    faces with face-decomposition tet quality < 1e-15      : 53
    faces with concavity > 80  degrees                     : 0
    faces with skewness > 4   (internal) or 20  (boundary) : 0
    faces with interpolation weights (0..1)  < 0.05        : 4022
    faces with volume ratio of neighbour cells < 0.01      : 0
    faces with face twist < 0.02                           : 1
    faces on cells with determinant < 0.001                : 0

Iteration 4
Moving mesh using displacement scaling : min:0.316406  max:1
Checking faces in error :
    non-orthogonality > 65  degrees                        : 1014
    faces with face pyramid volume < 1e-13                 : 0
    faces with face-decomposition tet quality < 1e-15      : 44
    faces with concavity > 80  degrees                     : 0
    faces with skewness > 4   (internal) or 20  (boundary) : 0
    faces with interpolation weights (0..1)  < 0.05        : 3169
    faces with volume ratio of neighbour cells < 0.01      : 0
    faces with face twist < 0.02                           : 0
    faces on cells with determinant < 0.001                : 0

Iteration 5
Displacement scaling for error reduction set to 0.
Moving mesh using displacement scaling : min:0.237305  max:1
Checking faces in error :
    non-orthogonality > 65  degrees                        : 779
    faces with face pyramid volume < 1e-13                 : 0
    faces with face-decomposition tet quality < 1e-15      : 37
    faces with concavity > 80  degrees                     : 0
    faces with skewness > 4   (internal) or 20  (boundary) : 0
    faces with interpolation weights (0..1)  < 0.05        : 2362
    faces with volume ratio of neighbour cells < 0.01      : 0
    faces with face twist < 0.02                           : 0
    faces on cells with determinant < 0.001                : 0

Iteration 6
Moving mesh using displacement scaling : min:0  max:1
Checking faces in error :
    non-orthogonality > 65  degrees                        : 28
    faces with face pyramid volume < 1e-13                 : 0
    faces with face-decomposition tet quality < 1e-15      : 0
    faces with concavity > 80  degrees                     : 4
    faces with skewness > 4   (internal) or 20  (boundary) : 0
    faces with interpolation weights (0..1)  < 0.05        : 97
    faces with volume ratio of neighbour cells < 0.01      : 0
    faces with face twist < 0.02                           : 0
    faces on cells with determinant < 0.001                : 0

Iteration 7
Moving mesh using displacement scaling : min:0  max:1
Checking faces in error :
    non-orthogonality > 65  degrees                        : 25
    faces with face pyramid volume < 1e-13                 : 0
    faces with face-decomposition tet quality < 1e-15      : 0
    faces with concavity > 80  degrees                     : 0
    faces with skewness > 4   (internal) or 20  (boundary) : 0
    faces with interpolation weights (0..1)  < 0.05        : 56
    faces with volume ratio of neighbour cells < 0.01      : 0
    faces with face twist < 0.02                           : 0
    faces on cells with determinant < 0.001                : 0

Iteration 8
Moving mesh using displacement scaling : min:0  max:1
Checking faces in error :
    non-orthogonality > 65  degrees                        : 19
    faces with face pyramid volume < 1e-13                 : 0
    faces with face-decomposition tet quality < 1e-15      : 0
    faces with concavity > 80  degrees                     : 0
    faces with skewness > 4   (internal) or 20  (boundary) : 0
    faces with interpolation weights (0..1)  < 0.05        : 48
    faces with volume ratio of neighbour cells < 0.01      : 0
    faces with face twist < 0.02                           : 0
    faces on cells with determinant < 0.001                : 0

Iteration 9
Moving mesh using displacement scaling : min:0  max:1
Checking faces in error :
    non-orthogonality > 65  degrees                        : 17
    faces with face pyramid volume < 1e-13                 : 0
    faces with face-decomposition tet quality < 1e-15      : 0
    faces with concavity > 80  degrees                     : 0
    faces with skewness > 4   (internal) or 20  (boundary) : 0
    faces with interpolation weights (0..1)  < 0.05        : 45
    faces with volume ratio of neighbour cells < 0.01      : 0
    faces with face twist < 0.02                           : 0
    faces on cells with determinant < 0.001                : 0
Moved mesh in = 8.22 s


--> FOAM Warning : 
    From void Foam::snappySnapDriver::doSnap(const Foam::dictionary&, const Foam::dictionary&, Foam::meshRefinement::FaceMergeType, Foam::scalar, Foam::scalar, const Foam::snapParameters&)
    in file snappyHexMeshDriver/snappySnapDriver.C at line 3446
    Did not successfully snap mesh. Continuing to snap to resolve easy
    surfaces but the resulting mesh will not satisfy your quality constraints


Morph iteration 9
-----------------
Calculating patchDisplacement as distance to nearest surface point ...
    non-zone points : attract to nearest of all non-zone surfaces
    zone points     : attract to zone surface only

Wanted displacement : average:0.0148549 min:2.01625e-09 max:0.433772
Calculated surface displacement in = 0.09 s


Detecting near surfaces ...
Overriding nearest with intersection of close gaps at 0 out of 65942 points.
Overriding displacement on features :
   implicit features    : true
   explicit features    : false
   multi-patch features : false

Attraction:
    linear   : max:(0.433772 3.55271e-15 0) avg:(-3.05943e-05 0.00140495 -4.17125e-06)
    feature  : max:(-0.980237 0 0) avg:(2.2221e-05 0.00177232 -4.14302e-05)
Feature analysis : total master points :65942 of which attracted to :
    feature point   : 72
    feature edge    : 3859
    nearest surface : 62011
    rest            : 0

--> FOAM Warning : Displacement (-0.041197 0 -0.00111346) at mesh point 19 coord (-37.3088 9.32647 -249.999) points through the surrounding patch faces
Smoothing displacement ...
Iteration 0
Iteration 10
Iteration 20
Iteration 30
Iteration 40
Iteration 50
Iteration 60
Iteration 70
Iteration 80
Iteration 90
Displacement smoothed in = 2.09 s


Moving mesh ...

Iteration 0
Moving mesh using displacement scaling : min:1  max:1
Checking faces in error :
    non-orthogonality > 65  degrees                        : 15413
    faces with face pyramid volume < 1e-13                 : 23106
    faces with face-decomposition tet quality < 1e-15      : 1361
    faces with concavity > 80  degrees                     : 13
    faces with skewness > 4   (internal) or 20  (boundary) : 37
    faces with interpolation weights (0..1)  < 0.05        : 2
    faces with volume ratio of neighbour cells < 0.01      : 0
    faces with face twist < 0.02                           : 322
    faces on cells with determinant < 0.001                : 0

Iteration 1
Moving mesh using displacement scaling : min:0.75  max:1
Checking faces in error :
    non-orthogonality > 65  degrees                        : 2745
    faces with face pyramid volume < 1e-13                 : 0
    faces with face-decomposition tet quality < 1e-15      : 150
    faces with concavity > 80  degrees                     : 69
    faces with skewness > 4   (internal) or 20  (boundary) : 0
    faces with interpolation weights (0..1)  < 0.05        : 12447
    faces with volume ratio of neighbour cells < 0.01      : 0
    faces with face twist < 0.02                           : 10
    faces on cells with determinant < 0.001                : 244

Iteration 2
Moving mesh using displacement scaling : min:0.5625  max:1
Checking faces in error :
    non-orthogonality > 65  degrees                        : 2135
    faces with face pyramid volume < 1e-13                 : 0
    faces with face-decomposition tet quality < 1e-15      : 97
    faces with concavity > 80  degrees                     : 21
    faces with skewness > 4   (internal) or 20  (boundary) : 0
    faces with interpolation weights (0..1)  < 0.05        : 10354
    faces with volume ratio of neighbour cells < 0.01      : 0
    faces with face twist < 0.02                           : 1
    faces on cells with determinant < 0.001                : 0

Iteration 3
Moving mesh using displacement scaling : min:0.421875  max:1
Checking faces in error :
    non-orthogonality > 65  degrees                        : 1870
    faces with face pyramid volume < 1e-13                 : 0
    faces with face-decomposition tet quality < 1e-15      : 76
    faces with concavity > 80  degrees                     : 3
    faces with skewness > 4   (internal) or 20  (boundary) : 0
    faces with interpolation weights (0..1)  < 0.05        : 6284
    faces with volume ratio of neighbour cells < 0.01      : 0
    faces with face twist < 0.02                           : 1
    faces on cells with determinant < 0.001                : 0

Iteration 4
Moving mesh using displacement scaling : min:0.316406  max:1
Checking faces in error :
    non-orthogonality > 65  degrees                        : 1737
    faces with face pyramid volume < 1e-13                 : 0
    faces with face-decomposition tet quality < 1e-15      : 62
    faces with concavity > 80  degrees                     : 0
    faces with skewness > 4   (internal) or 20  (boundary) : 0
    faces with interpolation weights (0..1)  < 0.05        : 5088
    faces with volume ratio of neighbour cells < 0.01      : 0
    faces with face twist < 0.02                           : 1
    faces on cells with determinant < 0.001                : 0

Iteration 5
Displacement scaling for error reduction set to 0.
Moving mesh using displacement scaling : min:0.237305  max:1
Checking faces in error :
    non-orthogonality > 65  degrees                        : 1587
    faces with face pyramid volume < 1e-13                 : 0
    faces with face-decomposition tet quality < 1e-15      : 52
    faces with concavity > 80  degrees                     : 0
    faces with skewness > 4   (internal) or 20  (boundary) : 0
    faces with interpolation weights (0..1)  < 0.05        : 4281
    faces with volume ratio of neighbour cells < 0.01      : 0
    faces with face twist < 0.02                           : 0
    faces on cells with determinant < 0.001                : 0

Iteration 6
Moving mesh using displacement scaling : min:0  max:1
Checking faces in error :
    non-orthogonality > 65  degrees                        : 103
    faces with face pyramid volume < 1e-13                 : 0
    faces with face-decomposition tet quality < 1e-15      : 0
    faces with concavity > 80  degrees                     : 2
    faces with skewness > 4   (internal) or 20  (boundary) : 0
    faces with interpolation weights (0..1)  < 0.05        : 271
    faces with volume ratio of neighbour cells < 0.01      : 0
    faces with face twist < 0.02                           : 0
    faces on cells with determinant < 0.001                : 0

Iteration 7
Moving mesh using displacement scaling : min:0  max:1
Checking faces in error :
    non-orthogonality > 65  degrees                        : 87
    faces with face pyramid volume < 1e-13                 : 0
    faces with face-decomposition tet quality < 1e-15      : 0
    faces with concavity > 80  degrees                     : 0
    faces with skewness > 4   (internal) or 20  (boundary) : 0
    faces with interpolation weights (0..1)  < 0.05        : 159
    faces with volume ratio of neighbour cells < 0.01      : 0
    faces with face twist < 0.02                           : 0
    faces on cells with determinant < 0.001                : 0

Iteration 8
Moving mesh using displacement scaling : min:0  max:1
Checking faces in error :
    non-orthogonality > 65  degrees                        : 83
    faces with face pyramid volume < 1e-13                 : 0
    faces with face-decomposition tet quality < 1e-15      : 0
    faces with concavity > 80  degrees                     : 0
    faces with skewness > 4   (internal) or 20  (boundary) : 0
    faces with interpolation weights (0..1)  < 0.05        : 137
    faces with volume ratio of neighbour cells < 0.01      : 0
    faces with face twist < 0.02                           : 0
    faces on cells with determinant < 0.001                : 0

Iteration 9
Moving mesh using displacement scaling : min:0  max:1
Checking faces in error :
    non-orthogonality > 65  degrees                        : 69
    faces with face pyramid volume < 1e-13                 : 0
    faces with face-decomposition tet quality < 1e-15      : 0
    faces with concavity > 80  degrees                     : 0
    faces with skewness > 4   (internal) or 20  (boundary) : 0
    faces with interpolation weights (0..1)  < 0.05        : 132
    faces with volume ratio of neighbour cells < 0.01      : 0
    faces with face twist < 0.02                           : 0
    faces on cells with determinant < 0.001                : 0
Moved mesh in = 9.23 s


--> FOAM Warning : 
    From void Foam::snappySnapDriver::doSnap(const Foam::dictionary&, const Foam::dictionary&, Foam::meshRefinement::FaceMergeType, Foam::scalar, Foam::scalar, const Foam::snapParameters&)
    in file snappyHexMeshDriver/snappySnapDriver.C at line 3446
    Did not successfully snap mesh. Continuing to snap to resolve easy
    surfaces but the resulting mesh will not satisfy your quality constraints

Edge intersection testing:
    Number of edges             : 658641
    Number of edges to retest   : 62212
    Number of intersected edges : 61759
Repatching faces according to nearest surface ...
Repatched 0 faces in = 0.95 s


Edge intersection testing:
    Number of edges             : 658641
    Number of edges to retest   : 31576
    Number of intersected edges : 61919
Merging 173 sets of faces.

Edge intersection testing:
    Number of edges             : 658463
    Number of edges to retest   : 699
    Number of intersected edges : 61741

Undo iteration 0
----------------
Checking faces in error :
    non-orthogonality > 65  degrees                        : 69
    faces with face pyramid volume < 1e-13                 : 0
    faces with face-decomposition tet quality < 1e-15      : 0
    faces with concavity > 80  degrees                     : 0
    faces with skewness > 4   (internal) or 20  (boundary) : 0
    faces with interpolation weights (0..1)  < 0.05        : 132
    faces with volume ratio of neighbour cells < 0.01      : 0
    faces with face twist < 0.02                           : 0
    faces on cells with determinant < 0.001                : 0
Masters that need to be restored:0

Merging all points on surface that
- are used by only two boundary faces and
- make an angle with a cosine of more than 0.866025.

Removing 168 straight edge points ...

Edge intersection testing:
    Number of edges             : 658463
    Number of edges to retest   : 699
    Number of intersected edges : 61741

Undo iteration 0
----------------
Checking faces in error :
    non-orthogonality > 65  degrees                        : 69
    faces with face pyramid volume < 1e-13                 : 0
    faces with face-decomposition tet quality < 1e-15      : 0
    faces with concavity > 80  degrees                     : 0
    faces with skewness > 4   (internal) or 20  (boundary) : 0
    faces with interpolation weights (0..1)  < 0.05        : 132
    faces with volume ratio of neighbour cells < 0.01      : 0
    faces with face twist < 0.02                           : 0
    faces on cells with determinant < 0.001                : 0
Detected 0 error faces on boundaries that have been merged. These will be restored to their original faces.

Detected 201 error faces in mesh. Restoring neighbours of faces in error.

Edge intersection testing:
    Number of edges             : 658463
    Number of edges to retest   : 10325
    Number of intersected edges : 61838
Snapped mesh : cells:212870  faces:658463  points:233037
Cells per refinement level:
    0	21837
    1	2337
    2	42968
    3	145728
Writing mesh to time constant
Wrote mesh in = 0.08 s.
Mesh snapped in = 70.66 s.
Checking final mesh ...
Checking faces in error :
    non-orthogonality > 65  degrees                        : 69
    faces with face pyramid volume < 1e-13                 : 0
    faces with face-decomposition tet quality < 1e-15      : 0
    faces with concavity > 80  degrees                     : 0
    faces with skewness > 4   (internal) or 20  (boundary) : 0
    faces with interpolation weights (0..1)  < 0.05        : 132
    faces with volume ratio of neighbour cells < 0.01      : 0
    faces with face twist < 0.02                           : 0
    faces on cells with determinant < 0.001                : 0
Finished meshing with 201 illegal faces (concave, zero area or negative cell pyramid volume)
Finished meshing in = 103.16 s.
End

