/*---------------------------------------------------------------------------*\
| =========                 |                                                 |
| \\      /  F ield         | OpenFOAM: The Open Source CFD Toolbox           |
|  \\    /   O peration     | Version:  2412                                  |
|   \\  /    A nd           | Website:  www.openfoam.com                      |
|    \\/     M anipulation  |                                                 |
\*---------------------------------------------------------------------------*/
Build  : _b8cf4d35-20260127 OPENFOAM=2412 patch=260127 version=2412
Arch   : "LSB;label=32;scalar=64"
Exec   : simpleFoam
Date   : May 28 2026
Time   : 22:25:30
Host   : LAPTOP-8OT81PN8
PID    : 4615
I/O    : uncollated
Case   : /home/saidul/heatsink_validation
nProcs : 1
trapFpe: Floating point exception trapping enabled (FOAM_SIGFPE).
fileModificationChecking : Monitoring run-time modified files using timeStampMaster (fileModificationSkew 5, maxFileModificationPolls 20)
allowSystemOperations : Allowing user-supplied system call operations

// * * * * * * * * * * * * * * * * * * * * * * * * * * * * * * * * * * * * * //
Create time

Create mesh for time = 0


SIMPLE: convergence criteria
    field p	 tolerance 0.01
    field U	 tolerance 0.001
    field "(k|epsilon|omega|f|v2)"	 tolerance 0.001

Reading field p

Reading field U

Reading/calculating face flux field phi

Selecting incompressible transport model Newtonian
Selecting turbulence model type RAS
Selecting RAS turbulence model kEpsilon
RAS
{
    RASModel        kEpsilon;
    turbulence      on;
    printCoeffs     on;
    Cmu             0.09;
    C1              1.44;
    C2              1.92;
    C3              0;
    sigmak          1;
    sigmaEps        1.3;
}

No MRF models present

No finite volume options present

Starting time loop

streamLine streamlines:
    Employing velocity field U
    automatic track length specified through number of sub cycles : 5

Time = 1

smoothSolver:  Solving for Ux, Initial residual = 1, Final residual = 0.0633693, No Iterations 1
smoothSolver:  Solving for Uy, Initial residual = 1, Final residual = 0.0250717, No Iterations 2
GAMG:  Solving for p, Initial residual = 1, Final residual = 0.0760079, No Iterations 18
time step continuity errors : sum local = 1.32998, global = -0.253635, cumulative = -0.253635
smoothSolver:  Solving for epsilon, Initial residual = 0.229374, Final residual = 0.0127023, No Iterations 3
bounding epsilon, min: -0.987321 max: 1080.25 average: 49.2504
smoothSolver:  Solving for k, Initial residual = 1, Final residual = 0.0682488, No Iterations 3
ExecutionTime = 0.24 s  ClockTime = 0 s

Time = 2

smoothSolver:  Solving for Ux, Initial residual = 0.433925, Final residual = 0.0312888, No Iterations 5
smoothSolver:  Solving for Uy, Initial residual = 0.267207, Final residual = 0.0264101, No Iterations 4
GAMG:  Solving for p, Initial residual = 0.0460769, Final residual = 0.00419588, No Iterations 10
time step continuity errors : sum local = 3.99291, global = 0.626804, cumulative = 0.37317
smoothSolver:  Solving for epsilon, Initial residual = 0.141542, Final residual = 0.0135204, No Iterations 2
bounding epsilon, min: -1828.62 max: 30491.2 average: 239.914
smoothSolver:  Solving for k, Initial residual = 0.391425, Final residual = 0.0297236, No Iterations 3
ExecutionTime = 0.27 s  ClockTime = 0 s

Time = 3

smoothSolver:  Solving for Ux, Initial residual = 0.125479, Final residual = 0.0118217, No Iterations 4
smoothSolver:  Solving for Uy, Initial residual = 0.187955, Final residual = 0.0153672, No Iterations 4
GAMG:  Solving for p, Initial residual = 0.131353, Final residual = 0.00967349, No Iterations 6
time step continuity errors : sum local = 2.86473, global = 0.465079, cumulative = 0.838249
smoothSolver:  Solving for epsilon, Initial residual = 0.0594853, Final residual = 0.00344195, No Iterations 2
smoothSolver:  Solving for k, Initial residual = 0.166963, Final residual = 0.0102097, No Iterations 3
ExecutionTime = 0.29 s  ClockTime = 0 s

Time = 4

smoothSolver:  Solving for Ux, Initial residual = 0.0660012, Final residual = 0.00407793, No Iterations 5
smoothSolver:  Solving for Uy, Initial residual = 0.0920581, Final residual = 0.00673413, No Iterations 4
GAMG:  Solving for p, Initial residual = 0.0980142, Final residual = 0.00795717, No Iterations 6
time step continuity errors : sum local = 1.36772, global = 0.224161, cumulative = 1.06241
smoothSolver:  Solving for epsilon, Initial residual = 0.0542063, Final residual = 0.00475358, No Iterations 1
bounding epsilon, min: -727.449 max: 195700 average: 625.987
smoothSolver:  Solving for k, Initial residual = 0.101949, Final residual = 0.00759238, No Iterations 3
ExecutionTime = 0.31 s  ClockTime = 0 s

Time = 5

smoothSolver:  Solving for Ux, Initial residual = 0.0508781, Final residual = 0.00327286, No Iterations 5
smoothSolver:  Solving for Uy, Initial residual = 0.076315, Final residual = 0.00690453, No Iterations 4
GAMG:  Solving for p, Initial residual = 0.0981094, Final residual = 0.00902138, No Iterations 3
time step continuity errors : sum local = 1.07331, global = -0.125752, cumulative = 0.936658
smoothSolver:  Solving for epsilon, Initial residual = 0.0348893, Final residual = 0.00308629, No Iterations 1
bounding epsilon, min: -4.91081 max: 217266 average: 546.313
smoothSolver:  Solving for k, Initial residual = 0.0814409, Final residual = 0.00799373, No Iterations 3
ExecutionTime = 0.34 s  ClockTime = 0 s

Time = 6

smoothSolver:  Solving for Ux, Initial residual = 0.0424379, Final residual = 0.00305588, No Iterations 5
smoothSolver:  Solving for Uy, Initial residual = 0.0615254, Final residual = 0.00423441, No Iterations 5
GAMG:  Solving for p, Initial residual = 0.0830985, Final residual = 0.00565755, No Iterations 4
time step continuity errors : sum local = 0.583633, global = -0.093355, cumulative = 0.843303
smoothSolver:  Solving for epsilon, Initial residual = 0.0174196, Final residual = 0.000736928, No Iterations 2
bounding epsilon, min: -227.727 max: 220700 average: 505.426
smoothSolver:  Solving for k, Initial residual = 0.0696874, Final residual = 0.00521782, No Iterations 4
ExecutionTime = 0.37 s  ClockTime = 0 s

Time = 7

smoothSolver:  Solving for Ux, Initial residual = 0.0376158, Final residual = 0.00299126, No Iterations 5
smoothSolver:  Solving for Uy, Initial residual = 0.0501507, Final residual = 0.00372234, No Iterations 5
GAMG:  Solving for p, Initial residual = 0.0686803, Final residual = 0.00645354, No Iterations 3
time step continuity errors : sum local = 0.646494, global = 0.109619, cumulative = 0.952923
smoothSolver:  Solving for epsilon, Initial residual = 0.0190079, Final residual = 0.000782413, No Iterations 2
smoothSolver:  Solving for k, Initial residual = 0.0604002, Final residual = 0.00528175, No Iterations 4
ExecutionTime = 0.39 s  ClockTime = 0 s

Time = 8

smoothSolver:  Solving for Ux, Initial residual = 0.0336232, Final residual = 0.00287539, No Iterations 5
smoothSolver:  Solving for Uy, Initial residual = 0.0470362, Final residual = 0.00356086, No Iterations 5
GAMG:  Solving for p, Initial residual = 0.0589386, Final residual = 0.00471885, No Iterations 3
time step continuity errors : sum local = 0.472237, global = -0.031937, cumulative = 0.920986
smoothSolver:  Solving for epsilon, Initial residual = 0.0115736, Final residual = 0.000742511, No Iterations 2
bounding epsilon, min: -89.2603 max: 198683 average: 504.427
smoothSolver:  Solving for k, Initial residual = 0.0548234, Final residual = 0.00520148, No Iterations 4
ExecutionTime = 0.41 s  ClockTime = 0 s

Time = 9

smoothSolver:  Solving for Ux, Initial residual = 0.0303784, Final residual = 0.00277501, No Iterations 5
smoothSolver:  Solving for Uy, Initial residual = 0.0408206, Final residual = 0.00334944, No Iterations 5
GAMG:  Solving for p, Initial residual = 0.0502862, Final residual = 0.00303971, No Iterations 3
time step continuity errors : sum local = 0.299543, global = 0.0248697, cumulative = 0.945856
smoothSolver:  Solving for epsilon, Initial residual = 0.0098004, Final residual = 0.000718721, No Iterations 2
smoothSolver:  Solving for k, Initial residual = 0.0508337, Final residual = 0.00332076, No Iterations 5
ExecutionTime = 0.44 s  ClockTime = 0 s

Time = 10

smoothSolver:  Solving for Ux, Initial residual = 0.0280616, Final residual = 0.00263951, No Iterations 5
smoothSolver:  Solving for Uy, Initial residual = 0.0368535, Final residual = 0.00318575, No Iterations 5
GAMG:  Solving for p, Initial residual = 0.0441783, Final residual = 0.00263182, No Iterations 3
time step continuity errors : sum local = 0.256775, global = 0.00813425, cumulative = 0.95399
smoothSolver:  Solving for epsilon, Initial residual = 0.00660929, Final residual = 0.000378412, No Iterations 3
bounding epsilon, min: -82.7587 max: 191292 average: 531.897
smoothSolver:  Solving for k, Initial residual = 0.0481697, Final residual = 0.00330418, No Iterations 5
ExecutionTime = 0.47 s  ClockTime = 1 s

Time = 11

smoothSolver:  Solving for Ux, Initial residual = 0.0263348, Final residual = 0.00251511, No Iterations 5
smoothSolver:  Solving for Uy, Initial residual = 0.0345993, Final residual = 0.00308637, No Iterations 5
GAMG:  Solving for p, Initial residual = 0.0402602, Final residual = 0.00385357, No Iterations 2
time step continuity errors : sum local = 0.37077, global = 0.00491644, cumulative = 0.958906
smoothSolver:  Solving for epsilon, Initial residual = 0.00550281, Final residual = 0.000387349, No Iterations 3
smoothSolver:  Solving for k, Initial residual = 0.0448855, Final residual = 0.00312958, No Iterations 5
ExecutionTime = 0.49 s  ClockTime = 1 s

Time = 12

smoothSolver:  Solving for Ux, Initial residual = 0.0246372, Final residual = 0.00238362, No Iterations 5
smoothSolver:  Solving for Uy, Initial residual = 0.0333967, Final residual = 0.00305249, No Iterations 5
GAMG:  Solving for p, Initial residual = 0.0395026, Final residual = 0.00308781, No Iterations 3
time step continuity errors : sum local = 0.292054, global = 0.0250771, cumulative = 0.983983
smoothSolver:  Solving for epsilon, Initial residual = 0.00468266, Final residual = 0.000403513, No Iterations 3
bounding epsilon, min: -82.4389 max: 189833 average: 550.545
smoothSolver:  Solving for k, Initial residual = 0.0422005, Final residual = 0.00295787, No Iterations 5
ExecutionTime = 0.51 s  ClockTime = 1 s

Time = 13

smoothSolver:  Solving for Ux, Initial residual = 0.0230878, Final residual = 0.0022422, No Iterations 5
smoothSolver:  Solving for Uy, Initial residual = 0.0319232, Final residual = 0.00289599, No Iterations 5
GAMG:  Solving for p, Initial residual = 0.0369286, Final residual = 0.00346934, No Iterations 2
time step continuity errors : sum local = 0.316335, global = 0.00523099, cumulative = 0.989214
smoothSolver:  Solving for epsilon, Initial residual = 0.00446804, Final residual = 0.000406959, No Iterations 3
smoothSolver:  Solving for k, Initial residual = 0.0397572, Final residual = 0.00279578, No Iterations 5
ExecutionTime = 0.54 s  ClockTime = 1 s

Time = 14

smoothSolver:  Solving for Ux, Initial residual = 0.0217324, Final residual = 0.0021302, No Iterations 5
smoothSolver:  Solving for Uy, Initial residual = 0.031272, Final residual = 0.00289059, No Iterations 5
GAMG:  Solving for p, Initial residual = 0.0361417, Final residual = 0.00236199, No Iterations 3
time step continuity errors : sum local = 0.213191, global = 0.00769356, cumulative = 0.996908
smoothSolver:  Solving for epsilon, Initial residual = 0.00426236, Final residual = 0.000417414, No Iterations 3
bounding epsilon, min: -88.3603 max: 189838 average: 563.383
smoothSolver:  Solving for k, Initial residual = 0.0373435, Final residual = 0.00262865, No Iterations 5
ExecutionTime = 0.57 s  ClockTime = 1 s

Time = 15

smoothSolver:  Solving for Ux, Initial residual = 0.0204069, Final residual = 0.00201066, No Iterations 5
smoothSolver:  Solving for Uy, Initial residual = 0.0301449, Final residual = 0.00280582, No Iterations 5
GAMG:  Solving for p, Initial residual = 0.0321444, Final residual = 0.00312496, No Iterations 2
time step continuity errors : sum local = 0.276668, global = 0.00706866, cumulative = 1.00398
smoothSolver:  Solving for epsilon, Initial residual = 0.00418456, Final residual = 0.000264472, No Iterations 4
smoothSolver:  Solving for k, Initial residual = 0.0349792, Final residual = 0.00247158, No Iterations 5
ExecutionTime = 0.6 s  ClockTime = 1 s

Time = 16

smoothSolver:  Solving for Ux, Initial residual = 0.0192754, Final residual = 0.00192589, No Iterations 5
smoothSolver:  Solving for Uy, Initial residual = 0.0295138, Final residual = 0.00280572, No Iterations 5
GAMG:  Solving for p, Initial residual = 0.0306849, Final residual = 0.00215674, No Iterations 3
time step continuity errors : sum local = 0.190146, global = -0.0130809, cumulative = 0.990896
smoothSolver:  Solving for epsilon, Initial residual = 0.00401092, Final residual = 0.000262629, No Iterations 4
bounding epsilon, min: -92.2588 max: 189947 average: 574.368
smoothSolver:  Solving for k, Initial residual = 0.0329151, Final residual = 0.00231073, No Iterations 5
ExecutionTime = 0.62 s  ClockTime = 1 s

Time = 17

smoothSolver:  Solving for Ux, Initial residual = 0.0181951, Final residual = 0.00118332, No Iterations 6
smoothSolver:  Solving for Uy, Initial residual = 0.0283184, Final residual = 0.00270742, No Iterations 5
GAMG:  Solving for p, Initial residual = 0.0273916, Final residual = 0.00267316, No Iterations 2
time step continuity errors : sum local = 0.230637, global = 0.00373167, cumulative = 0.994627
smoothSolver:  Solving for epsilon, Initial residual = 0.00396312, Final residual = 0.000259658, No Iterations 4
smoothSolver:  Solving for k, Initial residual = 0.031022, Final residual = 0.00216387, No Iterations 5
ExecutionTime = 0.65 s  ClockTime = 1 s

Time = 18

smoothSolver:  Solving for Ux, Initial residual = 0.0172263, Final residual = 0.00113511, No Iterations 6
smoothSolver:  Solving for Uy, Initial residual = 0.0278092, Final residual = 0.00271788, No Iterations 5
GAMG:  Solving for p, Initial residual = 0.0267811, Final residual = 0.00239855, No Iterations 3
time step continuity errors : sum local = 0.205913, global = -0.0329188, cumulative = 0.961709
smoothSolver:  Solving for epsilon, Initial residual = 0.0038301, Final residual = 0.000256064, No Iterations 4
bounding epsilon, min: -88.544 max: 190089 average: 584.378
smoothSolver:  Solving for k, Initial residual = 0.0293417, Final residual = 0.00203304, No Iterations 5
ExecutionTime = 0.68 s  ClockTime = 1 s

Time = 19

smoothSolver:  Solving for Ux, Initial residual = 0.0163445, Final residual = 0.00108043, No Iterations 6
smoothSolver:  Solving for Uy, Initial residual = 0.0269096, Final residual = 0.00264876, No Iterations 5
GAMG:  Solving for p, Initial residual = 0.0245756, Final residual = 0.00172411, No Iterations 3
time step continuity errors : sum local = 0.144644, global = -0.0109153, cumulative = 0.950793
smoothSolver:  Solving for epsilon, Initial residual = 0.00376661, Final residual = 0.000250861, No Iterations 4
smoothSolver:  Solving for k, Initial residual = 0.027803, Final residual = 0.00191357, No Iterations 5
ExecutionTime = 0.71 s  ClockTime = 1 s

Time = 20

smoothSolver:  Solving for Ux, Initial residual = 0.0155723, Final residual = 0.00103545, No Iterations 6
smoothSolver:  Solving for Uy, Initial residual = 0.0260445, Final residual = 0.00259431, No Iterations 5
GAMG:  Solving for p, Initial residual = 0.0231308, Final residual = 0.00161941, No Iterations 3
time step continuity errors : sum local = 0.133899, global = -0.0217604, cumulative = 0.929033
smoothSolver:  Solving for epsilon, Initial residual = 0.0036759, Final residual = 0.00024662, No Iterations 4
bounding epsilon, min: -90.8522 max: 190171 average: 593.39
smoothSolver:  Solving for k, Initial residual = 0.0263693, Final residual = 0.00179811, No Iterations 5
ExecutionTime = 0.73 s  ClockTime = 1 s

Time = 21

smoothSolver:  Solving for Ux, Initial residual = 0.0148608, Final residual = 0.000994057, No Iterations 6
smoothSolver:  Solving for Uy, Initial residual = 0.0253009, Final residual = 0.00165554, No Iterations 6
GAMG:  Solving for p, Initial residual = 0.0224242, Final residual = 0.00182145, No Iterations 3
time step continuity errors : sum local = 0.148508, global = -0.0197201, cumulative = 0.909313
smoothSolver:  Solving for epsilon, Initial residual = 0.00358715, Final residual = 0.000240314, No Iterations 4
smoothSolver:  Solving for k, Initial residual = 0.0251294, Final residual = 0.00169648, No Iterations 5
ExecutionTime = 0.76 s  ClockTime = 1 s

Time = 22

smoothSolver:  Solving for Ux, Initial residual = 0.0142013, Final residual = 0.000955361, No Iterations 6
smoothSolver:  Solving for Uy, Initial residual = 0.0242013, Final residual = 0.0015911, No Iterations 6
GAMG:  Solving for p, Initial residual = 0.0212669, Final residual = 0.00184488, No Iterations 3
time step continuity errors : sum local = 0.148076, global = -0.0213619, cumulative = 0.887951
smoothSolver:  Solving for epsilon, Initial residual = 0.00348126, Final residual = 0.000235629, No Iterations 4
bounding epsilon, min: -89.2076 max: 190222 average: 601.715
smoothSolver:  Solving for k, Initial residual = 0.0241279, Final residual = 0.00161233, No Iterations 5
ExecutionTime = 0.79 s  ClockTime = 1 s

Time = 23

smoothSolver:  Solving for Ux, Initial residual = 0.0135678, Final residual = 0.00091665, No Iterations 6
smoothSolver:  Solving for Uy, Initial residual = 0.0234676, Final residual = 0.00154045, No Iterations 6
GAMG:  Solving for p, Initial residual = 0.0205373, Final residual = 0.00185101, No Iterations 3
time step continuity errors : sum local = 0.146186, global = -0.0187648, cumulative = 0.869186
smoothSolver:  Solving for epsilon, Initial residual = 0.00344037, Final residual = 0.000230141, No Iterations 4
smoothSolver:  Solving for k, Initial residual = 0.023049, Final residual = 0.00152271, No Iterations 5
ExecutionTime = 0.82 s  ClockTime = 1 s

Time = 24

smoothSolver:  Solving for Ux, Initial residual = 0.0129753, Final residual = 0.000879653, No Iterations 6
smoothSolver:  Solving for Uy, Initial residual = 0.0227832, Final residual = 0.00149664, No Iterations 6
GAMG:  Solving for p, Initial residual = 0.0197648, Final residual = 0.00187215, No Iterations 3
time step continuity errors : sum local = 0.145514, global = -0.0184091, cumulative = 0.850777
smoothSolver:  Solving for epsilon, Initial residual = 0.0033179, Final residual = 0.00022407, No Iterations 4
bounding epsilon, min: -89.8372 max: 190247 average: 609.285
smoothSolver:  Solving for k, Initial residual = 0.0222169, Final residual = 0.00144929, No Iterations 5
ExecutionTime = 0.85 s  ClockTime = 1 s

Time = 25

smoothSolver:  Solving for Ux, Initial residual = 0.0124129, Final residual = 0.000842772, No Iterations 6
smoothSolver:  Solving for Uy, Initial residual = 0.0222416, Final residual = 0.00145601, No Iterations 6
GAMG:  Solving for p, Initial residual = 0.0191775, Final residual = 0.00189713, No Iterations 3
time step continuity errors : sum local = 0.145089, global = -0.0176204, cumulative = 0.833157
smoothSolver:  Solving for epsilon, Initial residual = 0.00328188, Final residual = 0.000218403, No Iterations 4
smoothSolver:  Solving for k, Initial residual = 0.0213495, Final residual = 0.00137396, No Iterations 5
ExecutionTime = 0.87 s  ClockTime = 1 s

Time = 26

smoothSolver:  Solving for Ux, Initial residual = 0.0118705, Final residual = 0.000808104, No Iterations 6
smoothSolver:  Solving for Uy, Initial residual = 0.0216774, Final residual = 0.00141785, No Iterations 6
GAMG:  Solving for p, Initial residual = 0.0186111, Final residual = 0.00107948, No Iterations 4
time step continuity errors : sum local = 0.0811794, global = 0.0179392, cumulative = 0.851096
smoothSolver:  Solving for epsilon, Initial residual = 0.003157, Final residual = 0.000211794, No Iterations 4
bounding epsilon, min: -89.2316 max: 190256 average: 615.968
smoothSolver:  Solving for k, Initial residual = 0.0206521, Final residual = 0.0013106, No Iterations 5
ExecutionTime = 0.9 s  ClockTime = 1 s

Time = 27

smoothSolver:  Solving for Ux, Initial residual = 0.0113522, Final residual = 0.000773099, No Iterations 6
smoothSolver:  Solving for Uy, Initial residual = 0.0212836, Final residual = 0.00138436, No Iterations 6
GAMG:  Solving for p, Initial residual = 0.0179636, Final residual = 0.00175736, No Iterations 3
time step continuity errors : sum local = 0.129865, global = -0.025804, cumulative = 0.825292
smoothSolver:  Solving for epsilon, Initial residual = 0.0031227, Final residual = 0.00020572, No Iterations 4
smoothSolver:  Solving for k, Initial residual = 0.0200136, Final residual = 0.00198586, No Iterations 4
ExecutionTime = 0.93 s  ClockTime = 1 s

Time = 28

smoothSolver:  Solving for Ux, Initial residual = 0.0108949, Final residual = 0.000745261, No Iterations 6
smoothSolver:  Solving for Uy, Initial residual = 0.0208636, Final residual = 0.00136083, No Iterations 6
GAMG:  Solving for p, Initial residual = 0.017599, Final residual = 0.00115621, No Iterations 4
time step continuity errors : sum local = 0.0841382, global = -0.00447454, cumulative = 0.820817
smoothSolver:  Solving for epsilon, Initial residual = 0.00299889, Final residual = 0.000198698, No Iterations 4
bounding epsilon, min: -89.4409 max: 190259 average: 621.904
smoothSolver:  Solving for k, Initial residual = 0.0195099, Final residual = 0.00190481, No Iterations 4
ExecutionTime = 0.95 s  ClockTime = 1 s

Time = 29

smoothSolver:  Solving for Ux, Initial residual = 0.0103974, Final residual = 0.000710337, No Iterations 6
smoothSolver:  Solving for Uy, Initial residual = 0.0207139, Final residual = 0.00134519, No Iterations 6
GAMG:  Solving for p, Initial residual = 0.0171066, Final residual = 0.00117356, No Iterations 3
time step continuity errors : sum local = 0.0829443, global = -0.00659204, cumulative = 0.814225
smoothSolver:  Solving for epsilon, Initial residual = 0.00299212, Final residual = 0.000191646, No Iterations 4
smoothSolver:  Solving for k, Initial residual = 0.0189806, Final residual = 0.00182599, No Iterations 4
ExecutionTime = 0.98 s  ClockTime = 1 s

Time = 30

smoothSolver:  Solving for Ux, Initial residual = 0.009978, Final residual = 0.000685113, No Iterations 6
smoothSolver:  Solving for Uy, Initial residual = 0.0204254, Final residual = 0.00133719, No Iterations 6
GAMG:  Solving for p, Initial residual = 0.0167341, Final residual = 0.00166483, No Iterations 3
time step continuity errors : sum local = 0.116505, global = -0.00585082, cumulative = 0.808374
smoothSolver:  Solving for epsilon, Initial residual = 0.00287186, Final residual = 0.000185125, No Iterations 4
bounding epsilon, min: -89.2788 max: 190257 average: 627.034
smoothSolver:  Solving for k, Initial residual = 0.018489, Final residual = 0.00175021, No Iterations 4
ExecutionTime = 1.01 s  ClockTime = 1 s

Time = 31

smoothSolver:  Solving for Ux, Initial residual = 0.00955466, Final residual = 0.000655813, No Iterations 6
smoothSolver:  Solving for Uy, Initial residual = 0.0203611, Final residual = 0.00133608, No Iterations 6
GAMG:  Solving for p, Initial residual = 0.0163537, Final residual = 0.000962277, No Iterations 4
time step continuity errors : sum local = 0.0659562, global = 0.0148329, cumulative = 0.823207
smoothSolver:  Solving for epsilon, Initial residual = 0.00284473, Final residual = 0.000178093, No Iterations 4
smoothSolver:  Solving for k, Initial residual = 0.0180738, Final residual = 0.00168412, No Iterations 4
ExecutionTime = 1.03 s  ClockTime = 1 s

Time = 32

smoothSolver:  Solving for Ux, Initial residual = 0.00913404, Final residual = 0.000627592, No Iterations 6
smoothSolver:  Solving for Uy, Initial residual = 0.020424, Final residual = 0.00135097, No Iterations 6
GAMG:  Solving for p, Initial residual = 0.0160595, Final residual = 0.0015591, No Iterations 3
time step continuity errors : sum local = 0.104634, global = -0.0142041, cumulative = 0.809003
smoothSolver:  Solving for epsilon, Initial residual = 0.00274815, Final residual = 0.000172322, No Iterations 4
bounding epsilon, min: -89.3637 max: 190250 average: 631.778
smoothSolver:  Solving for k, Initial residual = 0.0176028, Final residual = 0.0016143, No Iterations 4
ExecutionTime = 1.06 s  ClockTime = 1 s

Time = 33

smoothSolver:  Solving for Ux, Initial residual = 0.00876983, Final residual = 0.000604079, No Iterations 6
smoothSolver:  Solving for Uy, Initial residual = 0.0203532, Final residual = 0.00135382, No Iterations 6
GAMG:  Solving for p, Initial residual = 0.016113, Final residual = 0.00114631, No Iterations 4
time step continuity errors : sum local = 0.0759399, global = -0.012893, cumulative = 0.79611
smoothSolver:  Solving for epsilon, Initial residual = 0.00272838, Final residual = 0.00016557, No Iterations 4
smoothSolver:  Solving for k, Initial residual = 0.0172697, Final residual = 0.00156002, No Iterations 4
ExecutionTime = 1.09 s  ClockTime = 1 s

Time = 34

smoothSolver:  Solving for Ux, Initial residual = 0.0083737, Final residual = 0.00057627, No Iterations 6
smoothSolver:  Solving for Uy, Initial residual = 0.0204682, Final residual = 0.00137079, No Iterations 6
GAMG:  Solving for p, Initial residual = 0.0157901, Final residual = 0.00126872, No Iterations 3
time step continuity errors : sum local = 0.0818312, global = 0.00413577, cumulative = 0.800246
smoothSolver:  Solving for epsilon, Initial residual = 0.00264458, Final residual = 0.000159766, No Iterations 4
bounding epsilon, min: -89.3345 max: 190243 average: 635.771
smoothSolver:  Solving for k, Initial residual = 0.0168991, Final residual = 0.00150144, No Iterations 4
ExecutionTime = 1.11 s  ClockTime = 1 s

Time = 35

smoothSolver:  Solving for Ux, Initial residual = 0.00804274, Final residual = 0.000554808, No Iterations 6
smoothSolver:  Solving for Uy, Initial residual = 0.0205394, Final residual = 0.00138219, No Iterations 6
GAMG:  Solving for p, Initial residual = 0.0158267, Final residual = 0.00105571, No Iterations 4
time step continuity errors : sum local = 0.067538, global = 0.0159645, cumulative = 0.81621
smoothSolver:  Solving for epsilon, Initial residual = 0.00262867, Final residual = 0.0002571, No Iterations 3
smoothSolver:  Solving for k, Initial residual = 0.0165633, Final residual = 0.00145505, No Iterations 4
ExecutionTime = 1.14 s  ClockTime = 1 s

Time = 36

smoothSolver:  Solving for Ux, Initial residual = 0.00767181, Final residual = 0.000529018, No Iterations 6
smoothSolver:  Solving for Uy, Initial residual = 0.0206497, Final residual = 0.00139999, No Iterations 6
GAMG:  Solving for p, Initial residual = 0.0156333, Final residual = 0.00105327, No Iterations 4
time step continuity errors : sum local = 0.066, global = 0.0147669, cumulative = 0.830977
smoothSolver:  Solving for epsilon, Initial residual = 0.00256543, Final residual = 0.000254839, No Iterations 3
bounding epsilon, min: -89.5241 max: 190236 average: 638.496
smoothSolver:  Solving for k, Initial residual = 0.0163244, Final residual = 0.00142053, No Iterations 4
ExecutionTime = 1.16 s  ClockTime = 1 s

Time = 37

smoothSolver:  Solving for Ux, Initial residual = 0.00734364, Final residual = 0.000507176, No Iterations 6
smoothSolver:  Solving for Uy, Initial residual = 0.0207535, Final residual = 0.00141433, No Iterations 6
GAMG:  Solving for p, Initial residual = 0.0156882, Final residual = 0.00126105, No Iterations 4
time step continuity errors : sum local = 0.0778, global = 0.016236, cumulative = 0.847213
smoothSolver:  Solving for epsilon, Initial residual = 0.00258686, Final residual = 0.000251442, No Iterations 3
smoothSolver:  Solving for k, Initial residual = 0.0159814, Final residual = 0.00137868, No Iterations 4
ExecutionTime = 1.18 s  ClockTime = 1 s

Time = 38

smoothSolver:  Solving for Ux, Initial residual = 0.00703328, Final residual = 0.000486636, No Iterations 6
smoothSolver:  Solving for Uy, Initial residual = 0.020824, Final residual = 0.00142944, No Iterations 6
GAMG:  Solving for p, Initial residual = 0.0157593, Final residual = 0.00125628, No Iterations 4
time step continuity errors : sum local = 0.0762833, global = 0.0160765, cumulative = 0.86329
smoothSolver:  Solving for epsilon, Initial residual = 0.00252083, Final residual = 0.000248438, No Iterations 3
bounding epsilon, min: -89.3532 max: 190228 average: 640.785
smoothSolver:  Solving for k, Initial residual = 0.0157728, Final residual = 0.00134907, No Iterations 4
ExecutionTime = 1.22 s  ClockTime = 1 s

Time = 39

smoothSolver:  Solving for Ux, Initial residual = 0.00674988, Final residual = 0.000466644, No Iterations 6
smoothSolver:  Solving for Uy, Initial residual = 0.0210063, Final residual = 0.00144632, No Iterations 6
GAMG:  Solving for p, Initial residual = 0.0157658, Final residual = 0.00124417, No Iterations 4
time step continuity errors : sum local = 0.07423, global = 0.0160897, cumulative = 0.87938
smoothSolver:  Solving for epsilon, Initial residual = 0.0025355, Final residual = 0.000243255, No Iterations 3
smoothSolver:  Solving for k, Initial residual = 0.0154763, Final residual = 0.00131216, No Iterations 4
ExecutionTime = 1.24 s  ClockTime = 1 s

Time = 40

smoothSolver:  Solving for Ux, Initial residual = 0.00648352, Final residual = 0.000448872, No Iterations 6
smoothSolver:  Solving for Uy, Initial residual = 0.021141, Final residual = 0.00146503, No Iterations 6
GAMG:  Solving for p, Initial residual = 0.0157739, Final residual = 0.00123409, No Iterations 4
time step continuity errors : sum local = 0.0724798, global = 0.015999, cumulative = 0.895379
smoothSolver:  Solving for epsilon, Initial residual = 0.00246082, Final residual = 0.000239408, No Iterations 3
bounding epsilon, min: -89.3084 max: 190223 average: 642.733
smoothSolver:  Solving for k, Initial residual = 0.0152447, Final residual = 0.00128091, No Iterations 4
ExecutionTime = 1.26 s  ClockTime = 1 s

Time = 41

smoothSolver:  Solving for Ux, Initial residual = 0.00624739, Final residual = 0.000432277, No Iterations 6
smoothSolver:  Solving for Uy, Initial residual = 0.0213521, Final residual = 0.00148379, No Iterations 6
GAMG:  Solving for p, Initial residual = 0.0158098, Final residual = 0.00122135, No Iterations 4
time step continuity errors : sum local = 0.0706315, global = 0.0157115, cumulative = 0.91109
smoothSolver:  Solving for epsilon, Initial residual = 0.00247517, Final residual = 0.00023392, No Iterations 3
smoothSolver:  Solving for k, Initial residual = 0.0149854, Final residual = 0.00124748, No Iterations 4
ExecutionTime = 1.29 s  ClockTime = 1 s

Time = 42

smoothSolver:  Solving for Ux, Initial residual = 0.00602602, Final residual = 0.00041752, No Iterations 6
smoothSolver:  Solving for Uy, Initial residual = 0.0214988, Final residual = 0.00150361, No Iterations 6
GAMG:  Solving for p, Initial residual = 0.0158601, Final residual = 0.00119591, No Iterations 4
time step continuity errors : sum local = 0.0681493, global = 0.0152172, cumulative = 0.926307
smoothSolver:  Solving for epsilon, Initial residual = 0.00240625, Final residual = 0.000229283, No Iterations 3
bounding epsilon, min: -89.351 max: 190218 average: 644.391
smoothSolver:  Solving for k, Initial residual = 0.0147455, Final residual = 0.00121598, No Iterations 4
ExecutionTime = 1.32 s  ClockTime = 1 s

Time = 43

smoothSolver:  Solving for Ux, Initial residual = 0.00583158, Final residual = 0.000403787, No Iterations 6
smoothSolver:  Solving for Uy, Initial residual = 0.0217348, Final residual = 0.00152349, No Iterations 6
GAMG:  Solving for p, Initial residual = 0.0159397, Final residual = 0.00116943, No Iterations 4
time step continuity errors : sum local = 0.0656657, global = 0.0145719, cumulative = 0.940879
smoothSolver:  Solving for epsilon, Initial residual = 0.00242041, Final residual = 0.000223344, No Iterations 3
smoothSolver:  Solving for k, Initial residual = 0.0144235, Final residual = 0.0011767, No Iterations 4
ExecutionTime = 1.34 s  ClockTime = 1 s

Time = 44

smoothSolver:  Solving for Ux, Initial residual = 0.00565011, Final residual = 0.000391754, No Iterations 6
smoothSolver:  Solving for Uy, Initial residual = 0.0219071, Final residual = 0.00154387, No Iterations 6
GAMG:  Solving for p, Initial residual = 0.0159379, Final residual = 0.00113135, No Iterations 4
time step continuity errors : sum local = 0.0627036, global = 0.0138244, cumulative = 0.954703
smoothSolver:  Solving for epsilon, Initial residual = 0.00233227, Final residual = 0.000218639, No Iterations 3
bounding epsilon, min: -89.3536 max: 190214 average: 645.86
smoothSolver:  Solving for k, Initial residual = 0.0142323, Final residual = 0.00115138, No Iterations 4
ExecutionTime = 1.37 s  ClockTime = 1 s

Time = 45

smoothSolver:  Solving for Ux, Initial residual = 0.00549624, Final residual = 0.000380557, No Iterations 6
smoothSolver:  Solving for Uy, Initial residual = 0.0221641, Final residual = 0.00156473, No Iterations 6
GAMG:  Solving for p, Initial residual = 0.0159947, Final residual = 0.00108549, No Iterations 4
time step continuity errors : sum local = 0.0594146, global = 0.013095, cumulative = 0.967798
smoothSolver:  Solving for epsilon, Initial residual = 0.00234447, Final residual = 0.000212624, No Iterations 3
smoothSolver:  Solving for k, Initial residual = 0.0140027, Final residual = 0.00112274, No Iterations 4
ExecutionTime = 1.39 s  ClockTime = 1 s

Time = 46

smoothSolver:  Solving for Ux, Initial residual = 0.00535312, Final residual = 0.000370762, No Iterations 6
smoothSolver:  Solving for Uy, Initial residual = 0.0223584, Final residual = 0.00158698, No Iterations 6
GAMG:  Solving for p, Initial residual = 0.0160179, Final residual = 0.00105835, No Iterations 4
time step continuity errors : sum local = 0.0572754, global = 0.0127324, cumulative = 0.980531
smoothSolver:  Solving for epsilon, Initial residual = 0.00227656, Final residual = 0.000207056, No Iterations 3
bounding epsilon, min: -89.3578 max: 190211 average: 647.156
smoothSolver:  Solving for k, Initial residual = 0.0137364, Final residual = 0.00109033, No Iterations 4
ExecutionTime = 1.42 s  ClockTime = 1 s

Time = 47

smoothSolver:  Solving for Ux, Initial residual = 0.00523468, Final residual = 0.000361621, No Iterations 6
smoothSolver:  Solving for Uy, Initial residual = 0.0226625, Final residual = 0.00161102, No Iterations 6
GAMG:  Solving for p, Initial residual = 0.0160538, Final residual = 0.00104856, No Iterations 4
time step continuity errors : sum local = 0.0561628, global = 0.0123506, cumulative = 0.992881
smoothSolver:  Solving for epsilon, Initial residual = 0.00228662, Final residual = 0.000201143, No Iterations 3
smoothSolver:  Solving for k, Initial residual = 0.0135088, Final residual = 0.00106352, No Iterations 4
ExecutionTime = 1.45 s  ClockTime = 1 s

Time = 48

smoothSolver:  Solving for Ux, Initial residual = 0.00511966, Final residual = 0.000353498, No Iterations 6
smoothSolver:  Solving for Uy, Initial residual = 0.0229095, Final residual = 0.00163634, No Iterations 6
GAMG:  Solving for p, Initial residual = 0.0160783, Final residual = 0.00100897, No Iterations 4
time step continuity errors : sum local = 0.0535026, global = 0.0119192, cumulative = 1.0048
smoothSolver:  Solving for epsilon, Initial residual = 0.0022153, Final residual = 0.0001955, No Iterations 3
bounding epsilon, min: -89.3711 max: 190208 average: 648.373
smoothSolver:  Solving for k, Initial residual = 0.0132812, Final residual = 0.00103414, No Iterations 4
ExecutionTime = 1.47 s  ClockTime = 2 s

Time = 49

smoothSolver:  Solving for Ux, Initial residual = 0.00502554, Final residual = 0.000345855, No Iterations 6
smoothSolver:  Solving for Uy, Initial residual = 0.0232383, Final residual = 0.00166222, No Iterations 6
GAMG:  Solving for p, Initial residual = 0.0161079, Final residual = 0.00158792, No Iterations 3
time step continuity errors : sum local = 0.0833568, global = -0.0113468, cumulative = 0.993454
smoothSolver:  Solving for epsilon, Initial residual = 0.00223348, Final residual = 0.000188214, No Iterations 3
smoothSolver:  Solving for k, Initial residual = 0.0130376, Final residual = 0.00100482, No Iterations 4
ExecutionTime = 1.49 s  ClockTime = 2 s

Time = 50

smoothSolver:  Solving for Ux, Initial residual = 0.00494247, Final residual = 0.000339782, No Iterations 6
smoothSolver:  Solving for Uy, Initial residual = 0.0234602, Final residual = 0.00168664, No Iterations 6
GAMG:  Solving for p, Initial residual = 0.0164086, Final residual = 0.00152495, No Iterations 3
time step continuity errors : sum local = 0.0793771, global = 0.010235, cumulative = 1.00369
smoothSolver:  Solving for epsilon, Initial residual = 0.00216605, Final residual = 0.000183023, No Iterations 3
bounding epsilon, min: -89.373 max: 190207 average: 649.536
smoothSolver:  Solving for k, Initial residual = 0.0128602, Final residual = 0.000982027, No Iterations 4
ExecutionTime = 1.52 s  ClockTime = 2 s

Time = 51

smoothSolver:  Solving for Ux, Initial residual = 0.0048657, Final residual = 0.000333383, No Iterations 6
smoothSolver:  Solving for Uy, Initial residual = 0.0238503, Final residual = 0.00171507, No Iterations 6
GAMG:  Solving for p, Initial residual = 0.0163111, Final residual = 0.00150274, No Iterations 3
time step continuity errors : sum local = 0.077702, global = -0.00365122, cumulative = 1.00004
smoothSolver:  Solving for epsilon, Initial residual = 0.00218253, Final residual = 0.000177106, No Iterations 3
smoothSolver:  Solving for k, Initial residual = 0.0126233, Final residual = 0.000954465, No Iterations 4
ExecutionTime = 1.54 s  ClockTime = 2 s

Time = 52

smoothSolver:  Solving for Ux, Initial residual = 0.00479459, Final residual = 0.000328265, No Iterations 6
smoothSolver:  Solving for Uy, Initial residual = 0.0241389, Final residual = 0.00174335, No Iterations 6
GAMG:  Solving for p, Initial residual = 0.0164249, Final residual = 0.00139472, No Iterations 3
time step continuity errors : sum local = 0.0713201, global = 0.00719767, cumulative = 1.00724
smoothSolver:  Solving for epsilon, Initial residual = 0.0021091, Final residual = 0.00017214, No Iterations 3
bounding epsilon, min: -89.3793 max: 190205 average: 650.695
smoothSolver:  Solving for k, Initial residual = 0.0124289, Final residual = 0.000929847, No Iterations 4
ExecutionTime = 1.57 s  ClockTime = 2 s

Time = 53

smoothSolver:  Solving for Ux, Initial residual = 0.00473532, Final residual = 0.00032375, No Iterations 6
smoothSolver:  Solving for Uy, Initial residual = 0.0244656, Final residual = 0.0017682, No Iterations 6
GAMG:  Solving for p, Initial residual = 0.0165098, Final residual = 0.00143778, No Iterations 3
time step continuity errors : sum local = 0.0731219, global = 0.00137002, cumulative = 1.00861
smoothSolver:  Solving for epsilon, Initial residual = 0.00213564, Final residual = 0.000166625, No Iterations 3
smoothSolver:  Solving for k, Initial residual = 0.0121881, Final residual = 0.000901877, No Iterations 4
ExecutionTime = 1.6 s  ClockTime = 2 s

Time = 54

smoothSolver:  Solving for Ux, Initial residual = 0.00468076, Final residual = 0.000319864, No Iterations 6
smoothSolver:  Solving for Uy, Initial residual = 0.0247284, Final residual = 0.00179355, No Iterations 6
GAMG:  Solving for p, Initial residual = 0.0165368, Final residual = 0.00143442, No Iterations 3
time step continuity errors : sum local = 0.0724901, global = 0.00547203, cumulative = 1.01408
smoothSolver:  Solving for epsilon, Initial residual = 0.00207697, Final residual = 0.000161304, No Iterations 3
bounding epsilon, min: -89.3814 max: 190205 average: 651.746
smoothSolver:  Solving for k, Initial residual = 0.0120439, Final residual = 0.000880856, No Iterations 4
ExecutionTime = 1.63 s  ClockTime = 2 s

Time = 55

smoothSolver:  Solving for Ux, Initial residual = 0.0046371, Final residual = 0.000316157, No Iterations 6
smoothSolver:  Solving for Uy, Initial residual = 0.0250516, Final residual = 0.00181779, No Iterations 6
GAMG:  Solving for p, Initial residual = 0.016552, Final residual = 0.00143288, No Iterations 3
time step continuity errors : sum local = 0.0719969, global = 0.00354952, cumulative = 1.01763
smoothSolver:  Solving for epsilon, Initial residual = 0.00210192, Final residual = 0.000156044, No Iterations 3
smoothSolver:  Solving for k, Initial residual = 0.0118204, Final residual = 0.000856542, No Iterations 4
ExecutionTime = 1.65 s  ClockTime = 2 s

Time = 56

smoothSolver:  Solving for Ux, Initial residual = 0.00459149, Final residual = 0.000312999, No Iterations 6
smoothSolver:  Solving for Uy, Initial residual = 0.025321, Final residual = 0.00184226, No Iterations 6
GAMG:  Solving for p, Initial residual = 0.0165923, Final residual = 0.0014196, No Iterations 3
time step continuity errors : sum local = 0.0709147, global = 0.00560899, cumulative = 1.02324
smoothSolver:  Solving for epsilon, Initial residual = 0.00204221, Final residual = 0.000151478, No Iterations 3
bounding epsilon, min: -89.3848 max: 190205 average: 652.826
smoothSolver:  Solving for k, Initial residual = 0.0116143, Final residual = 0.000829686, No Iterations 4
ExecutionTime = 1.67 s  ClockTime = 2 s

Time = 57

smoothSolver:  Solving for Ux, Initial residual = 0.00455854, Final residual = 0.000310034, No Iterations 6
smoothSolver:  Solving for Uy, Initial residual = 0.0256322, Final residual = 0.00186456, No Iterations 6
GAMG:  Solving for p, Initial residual = 0.0166119, Final residual = 0.00137973, No Iterations 3
time step continuity errors : sum local = 0.068548, global = 0.00460699, cumulative = 1.02784
smoothSolver:  Solving for epsilon, Initial residual = 0.00206729, Final residual = 0.000145852, No Iterations 3
smoothSolver:  Solving for k, Initial residual = 0.011429, Final residual = 0.000808266, No Iterations 4
ExecutionTime = 1.7 s  ClockTime = 2 s

Time = 58

smoothSolver:  Solving for Ux, Initial residual = 0.00452434, Final residual = 0.000307922, No Iterations 6
smoothSolver:  Solving for Uy, Initial residual = 0.0258771, Final residual = 0.00188719, No Iterations 6
GAMG:  Solving for p, Initial residual = 0.0167001, Final residual = 0.00132652, No Iterations 3
time step continuity errors : sum local = 0.0655887, global = 0.00678687, cumulative = 1.03463
smoothSolver:  Solving for epsilon, Initial residual = 0.00201129, Final residual = 0.000141113, No Iterations 3
bounding epsilon, min: -89.3891 max: 190205 average: 653.935
smoothSolver:  Solving for k, Initial residual = 0.0112602, Final residual = 0.000786744, No Iterations 4
ExecutionTime = 1.72 s  ClockTime = 2 s

Time = 59

smoothSolver:  Solving for Ux, Initial residual = 0.00450558, Final residual = 0.000306161, No Iterations 6
smoothSolver:  Solving for Uy, Initial residual = 0.0261654, Final residual = 0.00190794, No Iterations 6
GAMG:  Solving for p, Initial residual = 0.016679, Final residual = 0.00131889, No Iterations 3
time step continuity errors : sum local = 0.0649359, global = 0.00423396, cumulative = 1.03886
smoothSolver:  Solving for epsilon, Initial residual = 0.00204451, Final residual = 0.000136419, No Iterations 3
smoothSolver:  Solving for k, Initial residual = 0.0110748, Final residual = 0.000765136, No Iterations 4
ExecutionTime = 1.75 s  ClockTime = 2 s

Time = 60

smoothSolver:  Solving for Ux, Initial residual = 0.00448566, Final residual = 0.000305039, No Iterations 6
smoothSolver:  Solving for Uy, Initial residual = 0.0263751, Final residual = 0.00192823, No Iterations 6
GAMG:  Solving for p, Initial residual = 0.0167406, Final residual = 0.00127321, No Iterations 3
time step continuity errors : sum local = 0.0624413, global = 0.00732671, cumulative = 1.04619
smoothSolver:  Solving for epsilon, Initial residual = 0.00196926, Final residual = 0.000132453, No Iterations 3
bounding epsilon, min: -89.3942 max: 190206 average: 655.108
smoothSolver:  Solving for k, Initial residual = 0.0109422, Final residual = 0.000746316, No Iterations 4
ExecutionTime = 1.77 s  ClockTime = 2 s

Time = 61

smoothSolver:  Solving for Ux, Initial residual = 0.00447669, Final residual = 0.000303996, No Iterations 6
smoothSolver:  Solving for Uy, Initial residual = 0.026625, Final residual = 0.00194612, No Iterations 6
GAMG:  Solving for p, Initial residual = 0.0167337, Final residual = 0.00124211, No Iterations 3
time step continuity errors : sum local = 0.0606876, global = 0.0019215, cumulative = 1.04811
smoothSolver:  Solving for epsilon, Initial residual = 0.00200306, Final residual = 0.000127786, No Iterations 3
smoothSolver:  Solving for k, Initial residual = 0.0107488, Final residual = 0.000722851, No Iterations 4
ExecutionTime = 1.79 s  ClockTime = 2 s

Time = 62

smoothSolver:  Solving for Ux, Initial residual = 0.00446446, Final residual = 0.000303412, No Iterations 6
smoothSolver:  Solving for Uy, Initial residual = 0.0268005, Final residual = 0.00196372, No Iterations 6
GAMG:  Solving for p, Initial residual = 0.0168029, Final residual = 0.00128881, No Iterations 3
time step continuity errors : sum local = 0.0626817, global = 0.0133004, cumulative = 1.06141
smoothSolver:  Solving for epsilon, Initial residual = 0.00195607, Final residual = 0.000124596, No Iterations 3
bounding epsilon, min: -89.3991 max: 190207 average: 656.316
smoothSolver:  Solving for k, Initial residual = 0.0106322, Final residual = 0.000707201, No Iterations 4
ExecutionTime = 1.82 s  ClockTime = 2 s

Time = 63

smoothSolver:  Solving for Ux, Initial residual = 0.00446386, Final residual = 0.000303154, No Iterations 6
smoothSolver:  Solving for Uy, Initial residual = 0.0270016, Final residual = 0.00197753, No Iterations 6
GAMG:  Solving for p, Initial residual = 0.0169644, Final residual = 0.00155553, No Iterations 3
time step continuity errors : sum local = 0.0755469, global = -0.0111744, cumulative = 1.05024
smoothSolver:  Solving for epsilon, Initial residual = 0.00198505, Final residual = 0.000120565, No Iterations 3
smoothSolver:  Solving for k, Initial residual = 0.0104713, Final residual = 0.000687523, No Iterations 4
ExecutionTime = 1.85 s  ClockTime = 2 s

Time = 64

smoothSolver:  Solving for Ux, Initial residual = 0.00446002, Final residual = 0.000302864, No Iterations 6
smoothSolver:  Solving for Uy, Initial residual = 0.0271244, Final residual = 0.0019901, No Iterations 6
GAMG:  Solving for p, Initial residual = 0.0171043, Final residual = 0.00107159, No Iterations 4
time step continuity errors : sum local = 0.0516443, global = -0.00968662, cumulative = 1.04055
smoothSolver:  Solving for epsilon, Initial residual = 0.00193213, Final residual = 0.000117518, No Iterations 3
bounding epsilon, min: -89.4037 max: 190209 average: 657.592
smoothSolver:  Solving for k, Initial residual = 0.0103608, Final residual = 0.000671247, No Iterations 4
ExecutionTime = 1.87 s  ClockTime = 2 s

Time = 65

smoothSolver:  Solving for Ux, Initial residual = 0.0044568, Final residual = 0.000302845, No Iterations 6
smoothSolver:  Solving for Uy, Initial residual = 0.0272709, Final residual = 0.00200029, No Iterations 6
GAMG:  Solving for p, Initial residual = 0.0172585, Final residual = 0.00122214, No Iterations 4
time step continuity errors : sum local = 0.0586686, global = -0.0126648, cumulative = 1.02789
smoothSolver:  Solving for epsilon, Initial residual = 0.00197127, Final residual = 0.000113305, No Iterations 3
smoothSolver:  Solving for k, Initial residual = 0.0102073, Final residual = 0.000653203, No Iterations 4
ExecutionTime = 1.9 s  ClockTime = 2 s

Time = 66

smoothSolver:  Solving for Ux, Initial residual = 0.00445486, Final residual = 0.000303039, No Iterations 6
smoothSolver:  Solving for Uy, Initial residual = 0.0273059, Final residual = 0.00200661, No Iterations 6
GAMG:  Solving for p, Initial residual = 0.0174966, Final residual = 0.00139034, No Iterations 4
time step continuity errors : sum local = 0.0666021, global = -0.0158141, cumulative = 1.01207
smoothSolver:  Solving for epsilon, Initial residual = 0.00190004, Final residual = 0.000110955, No Iterations 3
bounding epsilon, min: -89.4074 max: 190209 average: 658.825
smoothSolver:  Solving for k, Initial residual = 0.0101034, Final residual = 0.000637696, No Iterations 4
ExecutionTime = 1.92 s  ClockTime = 2 s

Time = 67

smoothSolver:  Solving for Ux, Initial residual = 0.00445914, Final residual = 0.000303052, No Iterations 6
smoothSolver:  Solving for Uy, Initial residual = 0.027357, Final residual = 0.0020091, No Iterations 6
GAMG:  Solving for p, Initial residual = 0.0176988, Final residual = 0.00150599, No Iterations 4
time step continuity errors : sum local = 0.0719069, global = -0.0177857, cumulative = 0.994287
smoothSolver:  Solving for epsilon, Initial residual = 0.00194023, Final residual = 0.000107578, No Iterations 3
smoothSolver:  Solving for k, Initial residual = 0.00995803, Final residual = 0.000621689, No Iterations 4
ExecutionTime = 1.95 s  ClockTime = 2 s

Time = 68

smoothSolver:  Solving for Ux, Initial residual = 0.00445531, Final residual = 0.000303251, No Iterations 6
smoothSolver:  Solving for Uy, Initial residual = 0.0273105, Final residual = 0.00200969, No Iterations 6
GAMG:  Solving for p, Initial residual = 0.0179728, Final residual = 0.00162798, No Iterations 4
time step continuity errors : sum local = 0.0772904, global = -0.019423, cumulative = 0.974864
smoothSolver:  Solving for epsilon, Initial residual = 0.00189121, Final residual = 0.000105395, No Iterations 3
bounding epsilon, min: -89.4116 max: 190211 average: 660.114
smoothSolver:  Solving for k, Initial residual = 0.00986855, Final residual = 0.000608592, No Iterations 4
ExecutionTime = 1.97 s  ClockTime = 2 s

Time = 69

smoothSolver:  Solving for Ux, Initial residual = 0.00446081, Final residual = 0.000303358, No Iterations 6
smoothSolver:  Solving for Uy, Initial residual = 0.0273118, Final residual = 0.00200793, No Iterations 6
GAMG:  Solving for p, Initial residual = 0.0181597, Final residual = 0.00169844, No Iterations 4
time step continuity errors : sum local = 0.0804616, global = -0.0203911, cumulative = 0.954473
smoothSolver:  Solving for epsilon, Initial residual = 0.0019227, Final residual = 0.000101962, No Iterations 3
smoothSolver:  Solving for k, Initial residual = 0.00974571, Final residual = 0.000593751, No Iterations 4
ExecutionTime = 2 s  ClockTime = 2 s

Time = 70

smoothSolver:  Solving for Ux, Initial residual = 0.00445851, Final residual = 0.000303722, No Iterations 6
smoothSolver:  Solving for Uy, Initial residual = 0.0272285, Final residual = 0.00200547, No Iterations 6
GAMG:  Solving for p, Initial residual = 0.0184241, Final residual = 0.00180641, No Iterations 4
time step continuity errors : sum local = 0.0852068, global = -0.0217232, cumulative = 0.932749
smoothSolver:  Solving for epsilon, Initial residual = 0.00187657, Final residual = 0.000100674, No Iterations 3
bounding epsilon, min: -89.4158 max: 190212 average: 661.361
smoothSolver:  Solving for k, Initial residual = 0.00965377, Final residual = 0.000581413, No Iterations 4
ExecutionTime = 2.02 s  ClockTime = 2 s

Time = 71

smoothSolver:  Solving for Ux, Initial residual = 0.00446592, Final residual = 0.000304129, No Iterations 6
smoothSolver:  Solving for Uy, Initial residual = 0.0271961, Final residual = 0.00200158, No Iterations 6
GAMG:  Solving for p, Initial residual = 0.0185301, Final residual = 0.00137747, No Iterations 5
time step continuity errors : sum local = 0.0648772, global = 0.0145246, cumulative = 0.947274
smoothSolver:  Solving for epsilon, Initial residual = 0.00190938, Final residual = 9.78591e-05, No Iterations 3
smoothSolver:  Solving for k, Initial residual = 0.00955009, Final residual = 0.000568877, No Iterations 4
ExecutionTime = 2.05 s  ClockTime = 2 s

Time = 72

smoothSolver:  Solving for Ux, Initial residual = 0.0044662, Final residual = 0.00030397, No Iterations 6
smoothSolver:  Solving for Uy, Initial residual = 0.0271179, Final residual = 0.00199901, No Iterations 6
GAMG:  Solving for p, Initial residual = 0.0181366, Final residual = 0.00102309, No Iterations 4
time step continuity errors : sum local = 0.0480652, global = -0.00823139, cumulative = 0.939043
smoothSolver:  Solving for epsilon, Initial residual = 0.0018681, Final residual = 9.67456e-05, No Iterations 3
bounding epsilon, min: -89.4206 max: 190214 average: 662.608
smoothSolver:  Solving for k, Initial residual = 0.00946576, Final residual = 0.000557504, No Iterations 4
ExecutionTime = 2.08 s  ClockTime = 2 s

Time = 73

smoothSolver:  Solving for Ux, Initial residual = 0.0044654, Final residual = 0.000304323, No Iterations 6
smoothSolver:  Solving for Uy, Initial residual = 0.0270457, Final residual = 0.00199215, No Iterations 6
GAMG:  Solving for p, Initial residual = 0.0181407, Final residual = 0.00148192, No Iterations 4
time step continuity errors : sum local = 0.0694549, global = -0.0171241, cumulative = 0.921918
smoothSolver:  Solving for epsilon, Initial residual = 0.00190826, Final residual = 9.45278e-05, No Iterations 3
smoothSolver:  Solving for k, Initial residual = 0.00935233, Final residual = 0.000546695, No Iterations 4
ExecutionTime = 2.11 s  ClockTime = 2 s

Time = 74

smoothSolver:  Solving for Ux, Initial residual = 0.00447915, Final residual = 0.000306371, No Iterations 6
smoothSolver:  Solving for Uy, Initial residual = 0.0268714, Final residual = 0.00198373, No Iterations 6
GAMG:  Solving for p, Initial residual = 0.0185356, Final residual = 0.00178213, No Iterations 4
time step continuity errors : sum local = 0.0833931, global = -0.0214737, cumulative = 0.900445
smoothSolver:  Solving for epsilon, Initial residual = 0.00184, Final residual = 9.39004e-05, No Iterations 3
bounding epsilon, min: -89.4232 max: 190215 average: 663.798
smoothSolver:  Solving for k, Initial residual = 0.00926954, Final residual = 0.000536546, No Iterations 4
ExecutionTime = 2.13 s  ClockTime = 2 s

Time = 75

smoothSolver:  Solving for Ux, Initial residual = 0.00448946, Final residual = 0.000306828, No Iterations 6
smoothSolver:  Solving for Uy, Initial residual = 0.0267828, Final residual = 0.0019751, No Iterations 6
GAMG:  Solving for p, Initial residual = 0.0186757, Final residual = 0.00147453, No Iterations 5
time step continuity errors : sum local = 0.0686423, global = 0.0150438, cumulative = 0.915488
smoothSolver:  Solving for epsilon, Initial residual = 0.00187143, Final residual = 9.17462e-05, No Iterations 3
smoothSolver:  Solving for k, Initial residual = 0.00918585, Final residual = 0.000528915, No Iterations 4
ExecutionTime = 2.16 s  ClockTime = 2 s

Time = 76

smoothSolver:  Solving for Ux, Initial residual = 0.00448467, Final residual = 0.000306548, No Iterations 6
smoothSolver:  Solving for Uy, Initial residual = 0.0266748, Final residual = 0.00196963, No Iterations 6
GAMG:  Solving for p, Initial residual = 0.0183482, Final residual = 0.00109464, No Iterations 4
time step continuity errors : sum local = 0.0508751, global = -0.00828571, cumulative = 0.907203
smoothSolver:  Solving for epsilon, Initial residual = 0.00183897, Final residual = 9.16728e-05, No Iterations 3
bounding epsilon, min: -89.427 max: 190216 average: 664.955
smoothSolver:  Solving for k, Initial residual = 0.00913252, Final residual = 0.000907338, No Iterations 3
ExecutionTime = 2.18 s  ClockTime = 2 s

Time = 77

smoothSolver:  Solving for Ux, Initial residual = 0.00448199, Final residual = 0.000306908, No Iterations 6
smoothSolver:  Solving for Uy, Initial residual = 0.026556, Final residual = 0.00195921, No Iterations 6
GAMG:  Solving for p, Initial residual = 0.0180063, Final residual = 0.00146073, No Iterations 4
time step continuity errors : sum local = 0.0677768, global = -0.0172734, cumulative = 0.889929
smoothSolver:  Solving for epsilon, Initial residual = 0.00187667, Final residual = 0.000184805, No Iterations 2
smoothSolver:  Solving for k, Initial residual = 0.00907431, Final residual = 0.000901438, No Iterations 3
ExecutionTime = 2.2 s  ClockTime = 2 s

Time = 78

smoothSolver:  Solving for Ux, Initial residual = 0.00448828, Final residual = 0.00030835, No Iterations 6
smoothSolver:  Solving for Uy, Initial residual = 0.0263769, Final residual = 0.00195044, No Iterations 6
GAMG:  Solving for p, Initial residual = 0.0185593, Final residual = 0.00182472, No Iterations 4
time step continuity errors : sum local = 0.0842905, global = -0.0213725, cumulative = 0.868557
smoothSolver:  Solving for epsilon, Initial residual = 0.00184553, Final residual = 9.22683e-05, No Iterations 3
bounding epsilon, min: -89.208 max: 190218 average: 665.917
smoothSolver:  Solving for k, Initial residual = 0.00905502, Final residual = 0.000899197, No Iterations 3
ExecutionTime = 2.23 s  ClockTime = 2 s

Time = 79

smoothSolver:  Solving for Ux, Initial residual = 0.00450195, Final residual = 0.000309067, No Iterations 6
smoothSolver:  Solving for Uy, Initial residual = 0.0262533, Final residual = 0.00193876, No Iterations 6
GAMG:  Solving for p, Initial residual = 0.0186493, Final residual = 0.00155449, No Iterations 5
time step continuity errors : sum local = 0.0715362, global = 0.0154361, cumulative = 0.883993
smoothSolver:  Solving for epsilon, Initial residual = 0.0018676, Final residual = 0.000185348, No Iterations 2
smoothSolver:  Solving for k, Initial residual = 0.00902247, Final residual = 0.000895939, No Iterations 3
ExecutionTime = 2.26 s  ClockTime = 2 s

Time = 80

smoothSolver:  Solving for Ux, Initial residual = 0.00449405, Final residual = 0.000308731, No Iterations 6
smoothSolver:  Solving for Uy, Initial residual = 0.0261172, Final residual = 0.00193064, No Iterations 6
GAMG:  Solving for p, Initial residual = 0.0184284, Final residual = 0.00123169, No Iterations 4
time step continuity errors : sum local = 0.0565694, global = -0.0108598, cumulative = 0.873133
smoothSolver:  Solving for epsilon, Initial residual = 0.00183797, Final residual = 9.31009e-05, No Iterations 3
bounding epsilon, min: -89.2945 max: 190219 average: 666.815
smoothSolver:  Solving for k, Initial residual = 0.00900586, Final residual = 0.000893634, No Iterations 3
ExecutionTime = 2.29 s  ClockTime = 2 s

Time = 81

smoothSolver:  Solving for Ux, Initial residual = 0.00449344, Final residual = 0.000309197, No Iterations 6
smoothSolver:  Solving for Uy, Initial residual = 0.0259706, Final residual = 0.00191806, No Iterations 6
GAMG:  Solving for p, Initial residual = 0.0180957, Final residual = 0.00161071, No Iterations 4
time step continuity errors : sum local = 0.0737235, global = -0.0188798, cumulative = 0.854253
smoothSolver:  Solving for epsilon, Initial residual = 0.00187512, Final residual = 0.000187416, No Iterations 2
smoothSolver:  Solving for k, Initial residual = 0.00895867, Final residual = 0.000889926, No Iterations 3
ExecutionTime = 2.31 s  ClockTime = 2 s

Time = 82

smoothSolver:  Solving for Ux, Initial residual = 0.00449157, Final residual = 0.000309875, No Iterations 6
smoothSolver:  Solving for Uy, Initial residual = 0.0257719, Final residual = 0.00190749, No Iterations 6
GAMG:  Solving for p, Initial residual = 0.0186172, Final residual = 0.001437, No Iterations 5
time step continuity errors : sum local = 0.0652695, global = 0.0134889, cumulative = 0.867742
smoothSolver:  Solving for epsilon, Initial residual = 0.00184505, Final residual = 9.38422e-05, No Iterations 3
bounding epsilon, min: -89.2669 max: 190219 average: 667.62
smoothSolver:  Solving for k, Initial residual = 0.00894337, Final residual = 0.00088908, No Iterations 3
ExecutionTime = 2.34 s  ClockTime = 2 s

Time = 83

smoothSolver:  Solving for Ux, Initial residual = 0.00449706, Final residual = 0.000309888, No Iterations 6
smoothSolver:  Solving for Uy, Initial residual = 0.0256353, Final residual = 0.00189409, No Iterations 6
GAMG:  Solving for p, Initial residual = 0.0182182, Final residual = 0.00132198, No Iterations 4
time step continuity errors : sum local = 0.0597645, global = -0.0138483, cumulative = 0.853894
smoothSolver:  Solving for epsilon, Initial residual = 0.00186915, Final residual = 9.17343e-05, No Iterations 3
smoothSolver:  Solving for k, Initial residual = 0.00887186, Final residual = 0.000879888, No Iterations 3
ExecutionTime = 2.36 s  ClockTime = 2 s

Time = 84

smoothSolver:  Solving for Ux, Initial residual = 0.00449169, Final residual = 0.000310449, No Iterations 6
smoothSolver:  Solving for Uy, Initial residual = 0.025436, Final residual = 0.0018826, No Iterations 6
GAMG:  Solving for p, Initial residual = 0.0182615, Final residual = 0.00172589, No Iterations 4
time step continuity errors : sum local = 0.0777666, global = -0.0177408, cumulative = 0.836153
smoothSolver:  Solving for epsilon, Initial residual = 0.00182851, Final residual = 9.13273e-05, No Iterations 3
bounding epsilon, min: -89.5035 max: 190220 average: 668.33
smoothSolver:  Solving for k, Initial residual = 0.00882827, Final residual = 0.000873456, No Iterations 3
ExecutionTime = 2.38 s  ClockTime = 2 s

Time = 85

smoothSolver:  Solving for Ux, Initial residual = 0.00449598, Final residual = 0.000310935, No Iterations 6
smoothSolver:  Solving for Uy, Initial residual = 0.0252852, Final residual = 0.00187014, No Iterations 6
GAMG:  Solving for p, Initial residual = 0.0186153, Final residual = 0.0014671, No Iterations 5
time step continuity errors : sum local = 0.0655841, global = 0.0126275, cumulative = 0.848781
smoothSolver:  Solving for epsilon, Initial residual = 0.00185208, Final residual = 0.000184081, No Iterations 2
smoothSolver:  Solving for k, Initial residual = 0.00879652, Final residual = 0.000874019, No Iterations 3
ExecutionTime = 2.42 s  ClockTime = 2 s

Time = 86

smoothSolver:  Solving for Ux, Initial residual = 0.00448426, Final residual = 0.000310469, No Iterations 6
smoothSolver:  Solving for Uy, Initial residual = 0.0250985, Final residual = 0.00185819, No Iterations 6
GAMG:  Solving for p, Initial residual = 0.0184005, Final residual = 0.0014213, No Iterations 4
time step continuity errors : sum local = 0.0631534, global = -0.0145297, cumulative = 0.834251
smoothSolver:  Solving for epsilon, Initial residual = 0.00183262, Final residual = 9.29887e-05, No Iterations 3
bounding epsilon, min: -89.192 max: 190220 average: 668.878
smoothSolver:  Solving for k, Initial residual = 0.00878781, Final residual = 0.000875164, No Iterations 3
ExecutionTime = 2.44 s  ClockTime = 2 s

Time = 87

smoothSolver:  Solving for Ux, Initial residual = 0.00448453, Final residual = 0.000310681, No Iterations 6
smoothSolver:  Solving for Uy, Initial residual = 0.0249138, Final residual = 0.00184286, No Iterations 6
GAMG:  Solving for p, Initial residual = 0.018369, Final residual = 0.0018223, No Iterations 4
time step continuity errors : sum local = 0.0804194, global = -0.0162143, cumulative = 0.818037
smoothSolver:  Solving for epsilon, Initial residual = 0.0018654, Final residual = 9.13553e-05, No Iterations 3
smoothSolver:  Solving for k, Initial residual = 0.00870119, Final residual = 0.000867201, No Iterations 3
ExecutionTime = 2.47 s  ClockTime = 3 s

Time = 88

smoothSolver:  Solving for Ux, Initial residual = 0.00447749, Final residual = 0.000311247, No Iterations 6
smoothSolver:  Solving for Uy, Initial residual = 0.0246865, Final residual = 0.00182961, No Iterations 6
GAMG:  Solving for p, Initial residual = 0.0187193, Final residual = 0.00148275, No Iterations 5
time step continuity errors : sum local = 0.0650189, global = 0.0120133, cumulative = 0.83005
smoothSolver:  Solving for epsilon, Initial residual = 0.00179113, Final residual = 9.11378e-05, No Iterations 3
bounding epsilon, min: -89.5427 max: 190221 average: 669.362
smoothSolver:  Solving for k, Initial residual = 0.00867306, Final residual = 0.00086417, No Iterations 3
ExecutionTime = 2.5 s  ClockTime = 3 s

Time = 89

smoothSolver:  Solving for Ux, Initial residual = 0.00447532, Final residual = 0.000310743, No Iterations 6
smoothSolver:  Solving for Uy, Initial residual = 0.0245356, Final residual = 0.00181512, No Iterations 6
GAMG:  Solving for p, Initial residual = 0.0182345, Final residual = 0.00152318, No Iterations 4
time step continuity errors : sum local = 0.0664315, global = -0.0149916, cumulative = 0.815058
smoothSolver:  Solving for epsilon, Initial residual = 0.00183036, Final residual = 8.94007e-05, No Iterations 3
smoothSolver:  Solving for k, Initial residual = 0.00859425, Final residual = 0.000858277, No Iterations 3
ExecutionTime = 2.52 s  ClockTime = 3 s

Time = 90

smoothSolver:  Solving for Ux, Initial residual = 0.00446585, Final residual = 0.000311008, No Iterations 6
smoothSolver:  Solving for Uy, Initial residual = 0.0243002, Final residual = 0.00180164, No Iterations 6
GAMG:  Solving for p, Initial residual = 0.0184947, Final residual = 0.00137476, No Iterations 5
time step continuity errors : sum local = 0.0595466, global = 0.0109421, cumulative = 0.826001
smoothSolver:  Solving for epsilon, Initial residual = 0.00178713, Final residual = 9.01237e-05, No Iterations 3
bounding epsilon, min: -89.4089 max: 190221 average: 669.675
smoothSolver:  Solving for k, Initial residual = 0.00855679, Final residual = 0.00085565, No Iterations 3
ExecutionTime = 2.56 s  ClockTime = 3 s

Time = 91

smoothSolver:  Solving for Ux, Initial residual = 0.00445878, Final residual = 0.000310647, No Iterations 6
smoothSolver:  Solving for Uy, Initial residual = 0.0241529, Final residual = 0.00178766, No Iterations 6
GAMG:  Solving for p, Initial residual = 0.0183146, Final residual = 0.00156183, No Iterations 4
time step continuity errors : sum local = 0.0672178, global = -0.0151813, cumulative = 0.810819
smoothSolver:  Solving for epsilon, Initial residual = 0.00180813, Final residual = 8.85013e-05, No Iterations 3
smoothSolver:  Solving for k, Initial residual = 0.00848787, Final residual = 0.000491333, No Iterations 4
ExecutionTime = 2.58 s  ClockTime = 3 s

Time = 92

smoothSolver:  Solving for Ux, Initial residual = 0.00444905, Final residual = 0.000310515, No Iterations 6
smoothSolver:  Solving for Uy, Initial residual = 0.0239268, Final residual = 0.00177418, No Iterations 6
GAMG:  Solving for p, Initial residual = 0.0187043, Final residual = 0.00140945, No Iterations 5
time step continuity errors : sum local = 0.0601582, global = 0.0111398, cumulative = 0.821959
smoothSolver:  Solving for epsilon, Initial residual = 0.00177422, Final residual = 9.05519e-05, No Iterations 3
bounding epsilon, min: -89.4606 max: 190221 average: 669.839
smoothSolver:  Solving for k, Initial residual = 0.00845282, Final residual = 0.000491503, No Iterations 4
ExecutionTime = 2.61 s  ClockTime = 3 s

Time = 93

smoothSolver:  Solving for Ux, Initial residual = 0.00443721, Final residual = 0.000309802, No Iterations 6
smoothSolver:  Solving for Uy, Initial residual = 0.0237804, Final residual = 0.00175975, No Iterations 6
GAMG:  Solving for p, Initial residual = 0.0185135, Final residual = 0.0016379, No Iterations 4
time step continuity errors : sum local = 0.0694032, global = -0.0154907, cumulative = 0.806468
smoothSolver:  Solving for epsilon, Initial residual = 0.00180298, Final residual = 9.0345e-05, No Iterations 3
smoothSolver:  Solving for k, Initial residual = 0.00838608, Final residual = 0.000490431, No Iterations 4
ExecutionTime = 2.64 s  ClockTime = 3 s

Time = 94

smoothSolver:  Solving for Ux, Initial residual = 0.00442609, Final residual = 0.000309695, No Iterations 6
smoothSolver:  Solving for Uy, Initial residual = 0.023528, Final residual = 0.00174464, No Iterations 6
GAMG:  Solving for p, Initial residual = 0.0188017, Final residual = 0.00144986, No Iterations 5
time step continuity errors : sum local = 0.0609073, global = 0.0113407, cumulative = 0.817809
smoothSolver:  Solving for epsilon, Initial residual = 0.00174862, Final residual = 9.1473e-05, No Iterations 3
bounding epsilon, min: -89.4309 max: 190222 average: 669.83
smoothSolver:  Solving for k, Initial residual = 0.00833788, Final residual = 0.000489983, No Iterations 4
ExecutionTime = 2.67 s  ClockTime = 3 s

Time = 95

smoothSolver:  Solving for Ux, Initial residual = 0.00441006, Final residual = 0.000308731, No Iterations 6
smoothSolver:  Solving for Uy, Initial residual = 0.0233712, Final residual = 0.00172974, No Iterations 6
GAMG:  Solving for p, Initial residual = 0.0184965, Final residual = 0.00167911, No Iterations 4
time step continuity errors : sum local = 0.0699921, global = -0.0154616, cumulative = 0.802347
smoothSolver:  Solving for epsilon, Initial residual = 0.0017744, Final residual = 9.10759e-05, No Iterations 3
smoothSolver:  Solving for k, Initial residual = 0.00826936, Final residual = 0.000488283, No Iterations 4
ExecutionTime = 2.69 s  ClockTime = 3 s

Time = 96

smoothSolver:  Solving for Ux, Initial residual = 0.00439712, Final residual = 0.000308557, No Iterations 6
smoothSolver:  Solving for Uy, Initial residual = 0.0231091, Final residual = 0.00171414, No Iterations 6
GAMG:  Solving for p, Initial residual = 0.0187708, Final residual = 0.00149555, No Iterations 5
time step continuity errors : sum local = 0.0618012, global = 0.0115743, cumulative = 0.813922
smoothSolver:  Solving for epsilon, Initial residual = 0.00173946, Final residual = 9.20221e-05, No Iterations 3
bounding epsilon, min: -89.4376 max: 190222 average: 669.605
smoothSolver:  Solving for k, Initial residual = 0.00822478, Final residual = 0.000487682, No Iterations 4
ExecutionTime = 2.72 s  ClockTime = 3 s

Time = 97

smoothSolver:  Solving for Ux, Initial residual = 0.0043775, Final residual = 0.000307315, No Iterations 6
smoothSolver:  Solving for Uy, Initial residual = 0.0229554, Final residual = 0.00169911, No Iterations 6
GAMG:  Solving for p, Initial residual = 0.0184725, Final residual = 0.00171548, No Iterations 4
time step continuity errors : sum local = 0.0703596, global = -0.0154506, cumulative = 0.798471
smoothSolver:  Solving for epsilon, Initial residual = 0.00175641, Final residual = 9.11167e-05, No Iterations 3
smoothSolver:  Solving for k, Initial residual = 0.00813597, Final residual = 0.000483652, No Iterations 4
ExecutionTime = 2.74 s  ClockTime = 3 s

Time = 98

smoothSolver:  Solving for Ux, Initial residual = 0.00436087, Final residual = 0.000306883, No Iterations 6
smoothSolver:  Solving for Uy, Initial residual = 0.0226967, Final residual = 0.00168395, No Iterations 6
GAMG:  Solving for p, Initial residual = 0.0186933, Final residual = 0.00154865, No Iterations 5
time step continuity errors : sum local = 0.0629569, global = 0.0118031, cumulative = 0.810274
smoothSolver:  Solving for epsilon, Initial residual = 0.00171505, Final residual = 9.18627e-05, No Iterations 3
bounding epsilon, min: -89.4354 max: 190222 average: 669.184
smoothSolver:  Solving for k, Initial residual = 0.00808265, Final residual = 0.00048227, No Iterations 4
ExecutionTime = 2.78 s  ClockTime = 3 s

Time = 99

smoothSolver:  Solving for Ux, Initial residual = 0.0043365, Final residual = 0.00030532, No Iterations 6
smoothSolver:  Solving for Uy, Initial residual = 0.0225504, Final residual = 0.00166959, No Iterations 6
GAMG:  Solving for p, Initial residual = 0.0183903, Final residual = 0.00173883, No Iterations 4
time step continuity errors : sum local = 0.0701716, global = -0.0152976, cumulative = 0.794977
smoothSolver:  Solving for epsilon, Initial residual = 0.00173229, Final residual = 9.0702e-05, No Iterations 3
smoothSolver:  Solving for k, Initial residual = 0.00800227, Final residual = 0.000479005, No Iterations 4
ExecutionTime = 2.8 s  ClockTime = 3 s

Time = 100

smoothSolver:  Solving for Ux, Initial residual = 0.00431838, Final residual = 0.000304661, No Iterations 6
smoothSolver:  Solving for Uy, Initial residual = 0.022297, Final residual = 0.00165499, No Iterations 6
GAMG:  Solving for p, Initial residual = 0.0186803, Final residual = 0.00158693, No Iterations 5
time step continuity errors : sum local = 0.0634749, global = 0.0117621, cumulative = 0.806739
smoothSolver:  Solving for epsilon, Initial residual = 0.00169063, Final residual = 9.09747e-05, No Iterations 3
bounding epsilon, min: -89.435 max: 190222 average: 668.605
smoothSolver:  Solving for k, Initial residual = 0.00794168, Final residual = 0.000476997, No Iterations 4
ExecutionTime = 2.87 s  ClockTime = 3 s

streamLine streamlines write:
    seeded 10 particles
    Tracks:10
    Total samples:12164
Time = 101

smoothSolver:  Solving for Ux, Initial residual = 0.00428921, Final residual = 0.000302815, No Iterations 6
smoothSolver:  Solving for Uy, Initial residual = 0.0221578, Final residual = 0.00164082, No Iterations 6
GAMG:  Solving for p, Initial residual = 0.018351, Final residual = 0.00175135, No Iterations 4
time step continuity errors : sum local = 0.0695358, global = -0.0150084, cumulative = 0.79173
smoothSolver:  Solving for epsilon, Initial residual = 0.00170695, Final residual = 9.00614e-05, No Iterations 3
smoothSolver:  Solving for k, Initial residual = 0.00785833, Final residual = 0.000473816, No Iterations 4
ExecutionTime = 3.1 s  ClockTime = 3 s

Time = 102

smoothSolver:  Solving for Ux, Initial residual = 0.00426776, Final residual = 0.000301814, No Iterations 6
smoothSolver:  Solving for Uy, Initial residual = 0.0219135, Final residual = 0.0016267, No Iterations 6
GAMG:  Solving for p, Initial residual = 0.0185873, Final residual = 0.0016088, No Iterations 5
time step continuity errors : sum local = 0.0632885, global = 0.0114886, cumulative = 0.803219
smoothSolver:  Solving for epsilon, Initial residual = 0.00165031, Final residual = 9.00796e-05, No Iterations 3
bounding epsilon, min: -89.4345 max: 190221 average: 667.83
smoothSolver:  Solving for k, Initial residual = 0.00779971, Final residual = 0.000471235, No Iterations 4
ExecutionTime = 3.13 s  ClockTime = 3 s

Time = 103

smoothSolver:  Solving for Ux, Initial residual = 0.00423465, Final residual = 0.00029973, No Iterations 6
smoothSolver:  Solving for Uy, Initial residual = 0.0217795, Final residual = 0.00161275, No Iterations 6
GAMG:  Solving for p, Initial residual = 0.0183132, Final residual = 0.00174919, No Iterations 4
time step continuity errors : sum local = 0.0682903, global = -0.0145855, cumulative = 0.788633
smoothSolver:  Solving for epsilon, Initial residual = 0.00166448, Final residual = 8.84804e-05, No Iterations 3
smoothSolver:  Solving for k, Initial residual = 0.00772386, Final residual = 0.00046748, No Iterations 4
ExecutionTime = 3.16 s  ClockTime = 3 s

Time = 104

smoothSolver:  Solving for Ux, Initial residual = 0.00420896, Final residual = 0.000298355, No Iterations 6
smoothSolver:  Solving for Uy, Initial residual = 0.0215459, Final residual = 0.00159887, No Iterations 6
GAMG:  Solving for p, Initial residual = 0.0185253, Final residual = 0.0016157, No Iterations 5
time step continuity errors : sum local = 0.0624854, global = 0.0110689, cumulative = 0.799702
smoothSolver:  Solving for epsilon, Initial residual = 0.00162985, Final residual = 8.85593e-05, No Iterations 3
bounding epsilon, min: -89.4335 max: 190221 average: 666.882
smoothSolver:  Solving for k, Initial residual = 0.00765965, Final residual = 0.000464089, No Iterations 4
ExecutionTime = 3.19 s  ClockTime = 3 s

Time = 105

smoothSolver:  Solving for Ux, Initial residual = 0.00417234, Final residual = 0.000296044, No Iterations 6
smoothSolver:  Solving for Uy, Initial residual = 0.0214091, Final residual = 0.00158457, No Iterations 6
GAMG:  Solving for p, Initial residual = 0.0182226, Final residual = 0.00172808, No Iterations 4
time step continuity errors : sum local = 0.0663172, global = -0.0140404, cumulative = 0.785662
smoothSolver:  Solving for epsilon, Initial residual = 0.00164212, Final residual = 8.69786e-05, No Iterations 3
smoothSolver:  Solving for k, Initial residual = 0.0075824, Final residual = 0.000460878, No Iterations 4
ExecutionTime = 3.22 s  ClockTime = 3 s

Time = 106

smoothSolver:  Solving for Ux, Initial residual = 0.0041427, Final residual = 0.000294307, No Iterations 6
smoothSolver:  Solving for Uy, Initial residual = 0.0211815, Final residual = 0.00157027, No Iterations 6
GAMG:  Solving for p, Initial residual = 0.0183905, Final residual = 0.00160962, No Iterations 5
time step continuity errors : sum local = 0.0611797, global = 0.0105458, cumulative = 0.796208
smoothSolver:  Solving for epsilon, Initial residual = 0.00160256, Final residual = 8.70869e-05, No Iterations 3
bounding epsilon, min: -89.4328 max: 190221 average: 665.763
smoothSolver:  Solving for k, Initial residual = 0.00752242, Final residual = 0.000457129, No Iterations 4
ExecutionTime = 3.27 s  ClockTime = 3 s

Time = 107

smoothSolver:  Solving for Ux, Initial residual = 0.00410407, Final residual = 0.000291789, No Iterations 6
smoothSolver:  Solving for Uy, Initial residual = 0.0210472, Final residual = 0.00155574, No Iterations 6
GAMG:  Solving for p, Initial residual = 0.0180896, Final residual = 0.0016889, No Iterations 4
time step continuity errors : sum local = 0.0636931, global = -0.0133889, cumulative = 0.782819
smoothSolver:  Solving for epsilon, Initial residual = 0.00161692, Final residual = 8.58852e-05, No Iterations 3
smoothSolver:  Solving for k, Initial residual = 0.00744848, Final residual = 0.000453823, No Iterations 4
ExecutionTime = 3.29 s  ClockTime = 3 s

Time = 108

smoothSolver:  Solving for Ux, Initial residual = 0.00406968, Final residual = 0.000289677, No Iterations 6
smoothSolver:  Solving for Uy, Initial residual = 0.0208282, Final residual = 0.0015413, No Iterations 6
GAMG:  Solving for p, Initial residual = 0.0181919, Final residual = 0.00158118, No Iterations 5
time step continuity errors : sum local = 0.0590708, global = 0.00983559, cumulative = 0.792654
smoothSolver:  Solving for epsilon, Initial residual = 0.00157683, Final residual = 8.54862e-05, No Iterations 3
bounding epsilon, min: -89.4319 max: 190220 average: 664.467
smoothSolver:  Solving for k, Initial residual = 0.00739439, Final residual = 0.000450281, No Iterations 4
ExecutionTime = 3.31 s  ClockTime = 3 s

Time = 109

smoothSolver:  Solving for Ux, Initial residual = 0.00402945, Final residual = 0.000286971, No Iterations 6
smoothSolver:  Solving for Uy, Initial residual = 0.0206894, Final residual = 0.00152659, No Iterations 6
GAMG:  Solving for p, Initial residual = 0.0178612, Final residual = 0.00163423, No Iterations 4
time step continuity errors : sum local = 0.0605849, global = -0.0124508, cumulative = 0.780204
smoothSolver:  Solving for epsilon, Initial residual = 0.00159059, Final residual = 8.38902e-05, No Iterations 3
smoothSolver:  Solving for k, Initial residual = 0.00731308, Final residual = 0.000446846, No Iterations 4
ExecutionTime = 3.35 s  ClockTime = 3 s

Time = 110

smoothSolver:  Solving for Ux, Initial residual = 0.00399157, Final residual = 0.000284536, No Iterations 6
smoothSolver:  Solving for Uy, Initial residual = 0.0204704, Final residual = 0.00151193, No Iterations 6
GAMG:  Solving for p, Initial residual = 0.0179363, Final residual = 0.00154276, No Iterations 5
time step continuity errors : sum local = 0.0566671, global = 0.00900545, cumulative = 0.789209
smoothSolver:  Solving for epsilon, Initial residual = 0.0015341, Final residual = 8.39074e-05, No Iterations 3
bounding epsilon, min: -89.4311 max: 190220 average: 663.045
smoothSolver:  Solving for k, Initial residual = 0.0072628, Final residual = 0.00044264, No Iterations 4
ExecutionTime = 3.38 s  ClockTime = 3 s

Time = 111

smoothSolver:  Solving for Ux, Initial residual = 0.00394914, Final residual = 0.000281636, No Iterations 6
[...]
smoothSolver:  Solving for epsilon, Initial residual = 0.000350632, Final residual = 1.03436e-05, No Iterations 2
smoothSolver:  Solving for k, Initial residual = 0.000323783, Final residual = 1.96588e-05, No Iterations 4
ExecutionTime = 7.64 s  ClockTime = 8 s

Time = 276

smoothSolver:  Solving for Ux, Initial residual = 0.000203372, Final residual = 1.72164e-05, No Iterations 5
smoothSolver:  Solving for Uy, Initial residual = 0.00125061, Final residual = 8.37062e-05, No Iterations 5
GAMG:  Solving for p, Initial residual = 0.00310404, Final residual = 0.000207677, No Iterations 3
time step continuity errors : sum local = 0.00565212, global = -1.48533e-05, cumulative = 0.711237
smoothSolver:  Solving for epsilon, Initial residual = 0.000295056, Final residual = 1.28642e-05, No Iterations 2
bounding epsilon, min: -87.8799 max: 190204 average: 601.409
smoothSolver:  Solving for k, Initial residual = 0.000326904, Final residual = 3.26305e-05, No Iterations 3
ExecutionTime = 7.66 s  ClockTime = 8 s

Time = 277

smoothSolver:  Solving for Ux, Initial residual = 0.000208403, Final residual = 1.70414e-05, No Iterations 5
smoothSolver:  Solving for Uy, Initial residual = 0.00134361, Final residual = 0.000130972, No Iterations 4
GAMG:  Solving for p, Initial residual = 0.00299564, Final residual = 0.000228245, No Iterations 3
time step continuity errors : sum local = 0.00620591, global = -0.000332483, cumulative = 0.710905
smoothSolver:  Solving for epsilon, Initial residual = 0.000337038, Final residual = 1.00925e-05, No Iterations 2
smoothSolver:  Solving for k, Initial residual = 0.00031712, Final residual = 1.90647e-05, No Iterations 4
ExecutionTime = 7.69 s  ClockTime = 8 s

Time = 278

smoothSolver:  Solving for Ux, Initial residual = 0.000199223, Final residual = 1.68627e-05, No Iterations 5
smoothSolver:  Solving for Uy, Initial residual = 0.00123918, Final residual = 8.28416e-05, No Iterations 5
GAMG:  Solving for p, Initial residual = 0.00306686, Final residual = 0.000202072, No Iterations 3
time step continuity errors : sum local = 0.00549542, global = -8.05298e-05, cumulative = 0.710824
smoothSolver:  Solving for epsilon, Initial residual = 0.00030305, Final residual = 1.30668e-05, No Iterations 2
bounding epsilon, min: -87.8596 max: 190205 average: 601.309
smoothSolver:  Solving for k, Initial residual = 0.000321586, Final residual = 3.17658e-05, No Iterations 3
ExecutionTime = 7.7 s  ClockTime = 8 s

Time = 279

smoothSolver:  Solving for Ux, Initial residual = 0.000204337, Final residual = 1.66955e-05, No Iterations 5
smoothSolver:  Solving for Uy, Initial residual = 0.00133015, Final residual = 0.000129477, No Iterations 4
GAMG:  Solving for p, Initial residual = 0.00297758, Final residual = 0.000204673, No Iterations 3
time step continuity errors : sum local = 0.00556033, global = -0.000151816, cumulative = 0.710673
smoothSolver:  Solving for epsilon, Initial residual = 0.000342228, Final residual = 9.81319e-06, No Iterations 2
smoothSolver:  Solving for k, Initial residual = 0.000311696, Final residual = 1.85376e-05, No Iterations 4
ExecutionTime = 7.72 s  ClockTime = 8 s

Time = 280

smoothSolver:  Solving for Ux, Initial residual = 0.000194737, Final residual = 1.64679e-05, No Iterations 5
smoothSolver:  Solving for Uy, Initial residual = 0.00122651, Final residual = 8.1611e-05, No Iterations 5
GAMG:  Solving for p, Initial residual = 0.00304475, Final residual = 0.000201492, No Iterations 3
time step continuity errors : sum local = 0.00547762, global = -2.56658e-05, cumulative = 0.710647
smoothSolver:  Solving for epsilon, Initial residual = 0.000302429, Final residual = 1.23752e-05, No Iterations 2
bounding epsilon, min: -87.8785 max: 190205 average: 601.218
smoothSolver:  Solving for k, Initial residual = 0.00031561, Final residual = 3.10157e-05, No Iterations 3
ExecutionTime = 7.75 s  ClockTime = 8 s

Time = 281

smoothSolver:  Solving for Ux, Initial residual = 0.000200493, Final residual = 1.63415e-05, No Iterations 5
smoothSolver:  Solving for Uy, Initial residual = 0.00131958, Final residual = 0.000127447, No Iterations 4
GAMG:  Solving for p, Initial residual = 0.00294706, Final residual = 0.000201209, No Iterations 3
time step continuity errors : sum local = 0.00546468, global = -4.44147e-05, cumulative = 0.710602
smoothSolver:  Solving for epsilon, Initial residual = 0.000343161, Final residual = 9.54779e-06, No Iterations 2
smoothSolver:  Solving for k, Initial residual = 0.000306327, Final residual = 1.80523e-05, No Iterations 4
ExecutionTime = 7.77 s  ClockTime = 8 s

Time = 282

smoothSolver:  Solving for Ux, Initial residual = 0.000191526, Final residual = 1.61412e-05, No Iterations 5
smoothSolver:  Solving for Uy, Initial residual = 0.00121284, Final residual = 8.01344e-05, No Iterations 5
GAMG:  Solving for p, Initial residual = 0.0030235, Final residual = 0.000222424, No Iterations 3
time step continuity errors : sum local = 0.00604352, global = -0.000196824, cumulative = 0.710406
smoothSolver:  Solving for epsilon, Initial residual = 0.000303663, Final residual = 1.26493e-05, No Iterations 2
bounding epsilon, min: -87.8597 max: 190204 average: 601.132
smoothSolver:  Solving for k, Initial residual = 0.000311077, Final residual = 3.02936e-05, No Iterations 3
ExecutionTime = 7.79 s  ClockTime = 8 s

Time = 283

smoothSolver:  Solving for Ux, Initial residual = 0.00019737, Final residual = 1.60778e-05, No Iterations 5
smoothSolver:  Solving for Uy, Initial residual = 0.00130096, Final residual = 0.000125096, No Iterations 4
GAMG:  Solving for p, Initial residual = 0.00294281, Final residual = 0.000188211, No Iterations 3
time step continuity errors : sum local = 0.00510661, global = 5.81532e-05, cumulative = 0.710464
smoothSolver:  Solving for epsilon, Initial residual = 0.000346344, Final residual = 9.38231e-06, No Iterations 2
smoothSolver:  Solving for k, Initial residual = 0.000301415, Final residual = 2.99286e-05, No Iterations 3
ExecutionTime = 7.82 s  ClockTime = 8 s

Time = 284

smoothSolver:  Solving for Ux, Initial residual = 0.000188068, Final residual = 1.59249e-05, No Iterations 5
smoothSolver:  Solving for Uy, Initial residual = 0.00119215, Final residual = 7.83186e-05, No Iterations 5
GAMG:  Solving for p, Initial residual = 0.00301878, Final residual = 0.000204232, No Iterations 3
time step continuity errors : sum local = 0.00554504, global = -2.08696e-05, cumulative = 0.710443
smoothSolver:  Solving for epsilon, Initial residual = 0.000290504, Final residual = 1.18506e-05, No Iterations 2
bounding epsilon, min: -87.8873 max: 190203 average: 601.049
smoothSolver:  Solving for k, Initial residual = 0.000304443, Final residual = 2.9437e-05, No Iterations 3
ExecutionTime = 7.84 s  ClockTime = 8 s

Time = 285

smoothSolver:  Solving for Ux, Initial residual = 0.000194137, Final residual = 1.5802e-05, No Iterations 5
smoothSolver:  Solving for Uy, Initial residual = 0.00128128, Final residual = 0.000121609, No Iterations 4
GAMG:  Solving for p, Initial residual = 0.00291022, Final residual = 0.000214951, No Iterations 3
time step continuity errors : sum local = 0.00583035, global = -0.000212287, cumulative = 0.710231
smoothSolver:  Solving for epsilon, Initial residual = 0.000331956, Final residual = 9.12648e-06, No Iterations 2
smoothSolver:  Solving for k, Initial residual = 0.000295644, Final residual = 2.91315e-05, No Iterations 3
ExecutionTime = 7.86 s  ClockTime = 8 s

Time = 286

smoothSolver:  Solving for Ux, Initial residual = 0.000185607, Final residual = 1.5669e-05, No Iterations 5
smoothSolver:  Solving for Uy, Initial residual = 0.00117017, Final residual = 7.62572e-05, No Iterations 5
GAMG:  Solving for p, Initial residual = 0.00298409, Final residual = 0.000189266, No Iterations 3
time step continuity errors : sum local = 0.00513471, global = 7.40291e-05, cumulative = 0.710305
smoothSolver:  Solving for epsilon, Initial residual = 0.000298214, Final residual = 1.20569e-05, No Iterations 2
bounding epsilon, min: -87.8701 max: 190204 average: 600.968
smoothSolver:  Solving for k, Initial residual = 0.000299787, Final residual = 2.86391e-05, No Iterations 3
ExecutionTime = 7.88 s  ClockTime = 8 s

Time = 287

smoothSolver:  Solving for Ux, Initial residual = 0.00019125, Final residual = 1.55799e-05, No Iterations 5
smoothSolver:  Solving for Uy, Initial residual = 0.00125924, Final residual = 0.00011893, No Iterations 4
GAMG:  Solving for p, Initial residual = 0.0029109, Final residual = 0.00019592, No Iterations 3
time step continuity errors : sum local = 0.00530927, global = -4.08184e-05, cumulative = 0.710264
smoothSolver:  Solving for epsilon, Initial residual = 0.000336997, Final residual = 8.84369e-06, No Iterations 2
smoothSolver:  Solving for k, Initial residual = 0.00029008, Final residual = 2.83029e-05, No Iterations 3
ExecutionTime = 7.91 s  ClockTime = 8 s

Time = 288

smoothSolver:  Solving for Ux, Initial residual = 0.000182356, Final residual = 1.53834e-05, No Iterations 5
smoothSolver:  Solving for Uy, Initial residual = 0.00114548, Final residual = 7.40359e-05, No Iterations 5
GAMG:  Solving for p, Initial residual = 0.00297425, Final residual = 0.000213546, No Iterations 3
time step continuity errors : sum local = 0.00579074, global = -0.000135388, cumulative = 0.710128
smoothSolver:  Solving for epsilon, Initial residual = 0.000297151, Final residual = 1.13517e-05, No Iterations 2
bounding epsilon, min: -87.8929 max: 190205 average: 600.896
smoothSolver:  Solving for k, Initial residual = 0.000293372, Final residual = 2.78053e-05, No Iterations 3
ExecutionTime = 7.93 s  ClockTime = 8 s

Time = 289

smoothSolver:  Solving for Ux, Initial residual = 0.000188549, Final residual = 1.53056e-05, No Iterations 5
smoothSolver:  Solving for Uy, Initial residual = 0.00123838, Final residual = 0.000115374, No Iterations 4
GAMG:  Solving for p, Initial residual = 0.00288646, Final residual = 0.000183516, No Iterations 3
time step continuity errors : sum local = 0.00497062, global = 8.94953e-05, cumulative = 0.710218
smoothSolver:  Solving for epsilon, Initial residual = 0.000337792, Final residual = 8.56987e-06, No Iterations 2
smoothSolver:  Solving for k, Initial residual = 0.000283771, Final residual = 2.74642e-05, No Iterations 3
ExecutionTime = 7.96 s  ClockTime = 8 s

Time = 290

smoothSolver:  Solving for Ux, Initial residual = 0.000179709, Final residual = 1.51459e-05, No Iterations 5
smoothSolver:  Solving for Uy, Initial residual = 0.00112386, Final residual = 7.1939e-05, No Iterations 5
GAMG:  Solving for p, Initial residual = 0.0029645, Final residual = 0.000210674, No Iterations 3
time step continuity errors : sum local = 0.00570905, global = -0.000176174, cumulative = 0.710042
smoothSolver:  Solving for epsilon, Initial residual = 0.000297864, Final residual = 1.16013e-05, No Iterations 2
bounding epsilon, min: -87.8716 max: 190204 average: 600.826
smoothSolver:  Solving for k, Initial residual = 0.000287493, Final residual = 2.69512e-05, No Iterations 3
ExecutionTime = 7.98 s  ClockTime = 8 s

Time = 291

smoothSolver:  Solving for Ux, Initial residual = 0.000185756, Final residual = 1.50347e-05, No Iterations 5
smoothSolver:  Solving for Uy, Initial residual = 0.00120945, Final residual = 0.000111469, No Iterations 4
GAMG:  Solving for p, Initial residual = 0.00288229, Final residual = 0.000183326, No Iterations 3
time step continuity errors : sum local = 0.00496146, global = 8.16872e-05, cumulative = 0.710123
smoothSolver:  Solving for epsilon, Initial residual = 0.000340004, Final residual = 3.38852e-05, No Iterations 1
smoothSolver:  Solving for k, Initial residual = 0.000280755, Final residual = 2.71661e-05, No Iterations 3
ExecutionTime = 8 s  ClockTime = 8 s

Time = 292

smoothSolver:  Solving for Ux, Initial residual = 0.000175867, Final residual = 1.48121e-05, No Iterations 5
smoothSolver:  Solving for Uy, Initial residual = 0.00109871, Final residual = 0.000108737, No Iterations 4
GAMG:  Solving for p, Initial residual = 0.00263122, Final residual = 0.000189269, No Iterations 3
time step continuity errors : sum local = 0.00512007, global = -0.000227676, cumulative = 0.709896
smoothSolver:  Solving for epsilon, Initial residual = 0.00030465, Final residual = 1.15573e-05, No Iterations 2
bounding epsilon, min: -102.578 max: 190204 average: 600.775
smoothSolver:  Solving for k, Initial residual = 0.000285813, Final residual = 2.69572e-05, No Iterations 3
ExecutionTime = 8.03 s  ClockTime = 8 s

Time = 293

smoothSolver:  Solving for Ux, Initial residual = 0.000179213, Final residual = 1.46446e-05, No Iterations 5
smoothSolver:  Solving for Uy, Initial residual = 0.00115809, Final residual = 0.000109469, No Iterations 4
GAMG:  Solving for p, Initial residual = 0.00261765, Final residual = 0.000169414, No Iterations 3
time step continuity errors : sum local = 0.00458335, global = 4.8194e-05, cumulative = 0.709944
smoothSolver:  Solving for epsilon, Initial residual = 0.000336405, Final residual = 8.39743e-06, No Iterations 2
smoothSolver:  Solving for k, Initial residual = 0.000273696, Final residual = 2.63305e-05, No Iterations 3
ExecutionTime = 8.05 s  ClockTime = 8 s

Time = 294

smoothSolver:  Solving for Ux, Initial residual = 0.00017178, Final residual = 1.45078e-05, No Iterations 5
smoothSolver:  Solving for Uy, Initial residual = 0.00105834, Final residual = 6.78737e-05, No Iterations 5
GAMG:  Solving for p, Initial residual = 0.0029846, Final residual = 0.000190324, No Iterations 3
time step continuity errors : sum local = 0.00515206, global = 3.17461e-05, cumulative = 0.709976
smoothSolver:  Solving for epsilon, Initial residual = 0.000293017, Final residual = 1.06846e-05, No Iterations 2
bounding epsilon, min: -87.357 max: 190205 average: 600.707
smoothSolver:  Solving for k, Initial residual = 0.000276375, Final residual = 2.56585e-05, No Iterations 3
ExecutionTime = 8.07 s  ClockTime = 8 s

Time = 295

smoothSolver:  Solving for Ux, Initial residual = 0.000178453, Final residual = 1.43784e-05, No Iterations 5
smoothSolver:  Solving for Uy, Initial residual = 0.00113407, Final residual = 0.000102999, No Iterations 4
GAMG:  Solving for p, Initial residual = 0.00275424, Final residual = 0.000200825, No Iterations 3
time step continuity errors : sum local = 0.00543061, global = -0.000208037, cumulative = 0.709768
smoothSolver:  Solving for epsilon, Initial residual = 0.000330916, Final residual = 7.98123e-06, No Iterations 2
smoothSolver:  Solving for k, Initial residual = 0.000265434, Final residual = 2.51156e-05, No Iterations 3
ExecutionTime = 8.09 s  ClockTime = 8 s

Time = 296

smoothSolver:  Solving for Ux, Initial residual = 0.00016899, Final residual = 1.42233e-05, No Iterations 5
smoothSolver:  Solving for Uy, Initial residual = 0.00102172, Final residual = 0.000100086, No Iterations 4
GAMG:  Solving for p, Initial residual = 0.00282062, Final residual = 0.000168493, No Iterations 3
time step continuity errors : sum local = 0.00455839, global = 0.000106031, cumulative = 0.709874
smoothSolver:  Solving for epsilon, Initial residual = 0.000292559, Final residual = 1.12286e-05, No Iterations 2
bounding epsilon, min: -88.5117 max: 190198 average: 600.647
smoothSolver:  Solving for k, Initial residual = 0.000267013, Final residual = 2.44294e-05, No Iterations 3
ExecutionTime = 8.11 s  ClockTime = 8 s

Time = 297

smoothSolver:  Solving for Ux, Initial residual = 0.000174048, Final residual = 1.40756e-05, No Iterations 5
smoothSolver:  Solving for Uy, Initial residual = 0.00111, Final residual = 0.00010089, No Iterations 4
GAMG:  Solving for p, Initial residual = 0.0027226, Final residual = 0.000176657, No Iterations 3
time step continuity errors : sum local = 0.0047745, global = -4.85006e-06, cumulative = 0.709869
smoothSolver:  Solving for epsilon, Initial residual = 0.000332929, Final residual = 3.3134e-05, No Iterations 1
smoothSolver:  Solving for k, Initial residual = 0.000259101, Final residual = 2.44772e-05, No Iterations 3
ExecutionTime = 8.14 s  ClockTime = 8 s

Time = 298

smoothSolver:  Solving for Ux, Initial residual = 0.000164742, Final residual = 1.38187e-05, No Iterations 5
smoothSolver:  Solving for Uy, Initial residual = 0.00100749, Final residual = 9.70687e-05, No Iterations 4
GAMG:  Solving for p, Initial residual = 0.00250072, Final residual = 0.000176755, No Iterations 3
time step continuity errors : sum local = 0.00477526, global = -0.00017167, cumulative = 0.709697
smoothSolver:  Solving for epsilon, Initial residual = 0.000314246, Final residual = 1.096e-05, No Iterations 2
bounding epsilon, min: -102.399 max: 190199 average: 600.604
smoothSolver:  Solving for k, Initial residual = 0.000263636, Final residual = 2.4151e-05, No Iterations 3
ExecutionTime = 8.16 s  ClockTime = 8 s

Time = 299

smoothSolver:  Solving for Ux, Initial residual = 0.000170643, Final residual = 1.37108e-05, No Iterations 5
smoothSolver:  Solving for Uy, Initial residual = 0.00112944, Final residual = 9.8783e-05, No Iterations 4
GAMG:  Solving for p, Initial residual = 0.00277268, Final residual = 0.000164155, No Iterations 3
time step continuity errors : sum local = 0.00443487, global = 8.6696e-05, cumulative = 0.709784
smoothSolver:  Solving for epsilon, Initial residual = 0.000346859, Final residual = 3.3435e-05, No Iterations 1
smoothSolver:  Solving for k, Initial residual = 0.000253737, Final residual = 2.40398e-05, No Iterations 3
ExecutionTime = 8.18 s  ClockTime = 8 s

Time = 300

smoothSolver:  Solving for Ux, Initial residual = 0.000164393, Final residual = 1.35128e-05, No Iterations 5
smoothSolver:  Solving for Uy, Initial residual = 0.00102395, Final residual = 9.48174e-05, No Iterations 4
GAMG:  Solving for p, Initial residual = 0.0027145, Final residual = 0.000179168, No Iterations 3
time step continuity errors : sum local = 0.00483859, global = -1.66579e-06, cumulative = 0.709782
smoothSolver:  Solving for epsilon, Initial residual = 0.000298513, Final residual = 1.21996e-05, No Iterations 2
bounding epsilon, min: -99.6682 max: 190211 average: 600.563
smoothSolver:  Solving for k, Initial residual = 0.000257136, Final residual = 2.36148e-05, No Iterations 3
ExecutionTime = 8.25 s  ClockTime = 8 s

streamLine streamlines write:
    seeded 10 particles
    Tracks:10
    Total samples:12089
Time = 301

smoothSolver:  Solving for Ux, Initial residual = 0.000164792, Final residual = 1.32994e-05, No Iterations 5
smoothSolver:  Solving for Uy, Initial residual = 0.00103639, Final residual = 9.35263e-05, No Iterations 4
GAMG:  Solving for p, Initial residual = 0.00240958, Final residual = 0.000158779, No Iterations 3
time step continuity errors : sum local = 0.00428777, global = 6.63188e-05, cumulative = 0.709849
smoothSolver:  Solving for epsilon, Initial residual = 0.000331134, Final residual = 7.78526e-06, No Iterations 2
smoothSolver:  Solving for k, Initial residual = 0.000242957, Final residual = 2.28559e-05, No Iterations 3
ExecutionTime = 8.29 s  ClockTime = 8 s

Time = 302

smoothSolver:  Solving for Ux, Initial residual = 0.0001559, Final residual = 1.31363e-05, No Iterations 5
smoothSolver:  Solving for Uy, Initial residual = 0.000955508, Final residual = 9.24416e-05, No Iterations 4
GAMG:  Solving for p, Initial residual = 0.00284401, Final residual = 0.000176643, No Iterations 3
time step continuity errors : sum local = 0.00477394, global = -0.000113467, cumulative = 0.709735
smoothSolver:  Solving for epsilon, Initial residual = 0.000290031, Final residual = 1.02506e-05, No Iterations 2
bounding epsilon, min: -85.8211 max: 190202 average: 600.515
smoothSolver:  Solving for k, Initial residual = 0.000244569, Final residual = 2.20469e-05, No Iterations 3
ExecutionTime = 8.33 s  ClockTime = 8 s


SIMPLE solution converged in 302 iterations

streamLine streamlines write:
    seeded 10 particles
    Tracks:10
    Total samples:12089
End

